
This summary file was generated by HydroDyn v2.05.01 on 21-Mar-2018 at 19:27:26.

WAMIT Model
-----------
  Displaced volume (m^3)                 :     9.280960E+03
  X-offset of the center of buoyancy (m) :     0.000000E+00
  Y-offset of the center of buoyancy (m) :     0.000000E+00


  Buoyancy loads from members modelled with WAMIT, summed about ( 0.0, 0.0, 0.0 )
                                BuoyFxi               BuoyFyi               BuoyFzi               BuoyMxi               BuoyMyi               BuoyMzi 
                                  (N)                   (N)                   (N)                  (N-m)                 (N-m)                 (N-m)  
  External:                 0.000000E+00          0.000000E+00          9.329050E+07          0.000000E+00          0.000000E+00          0.000000E+00



Volume Calculations(m^3)
------------------------
  Structure Volume     :    0.00000E+00
  Submerged Volume     :    0.00000E+00
  Marine Growth Volume :    0.00000E+00
  Ballasted Volume     :    0.00000E+00
              NOTE: Structure, Submerged and Marine Growth volumes are based on members not modelled with WAMIT
                      Ballasted volume is computed from all members which are marked as filled in the HydroDyn input file, regardless of PropPot flag



Buoyancy loads summed about ( 0.0, 0.0, 0.0 )
---------------------------------------------
                                BuoyFxi               BuoyFyi               BuoyFzi               BuoyMxi               BuoyMyi               BuoyMzi 
                                  (N)                   (N)                   (N)                  (N-m)                 (N-m)                 (N-m)  
 External:                  0.000000E+00          0.000000E+00          0.000000E+00          0.000000E+00          0.000000E+00          0.000000E+00
 Internal:                  0.000000E+00          0.000000E+00          0.000000E+00          0.000000E+00          0.000000E+00          0.000000E+00
 Total   :                  0.000000E+00          0.000000E+00          0.000000E+00          0.000000E+00          0.000000E+00          0.000000E+00
              NOTE: External buoyancy is based on members not modelled with WAMIT
                      Internal buoyancy is computed from all members which are marked as filled in the HydroDyn input file, regardless of PropPot flag
                    Total buoyancy does not include WAMIT-modelled buoyancy contribution



Weight loads about ( 0.0, 0.0, 0.0 )
------------------------------------
                                 MGFxi                 MGFyi                 MGFzi                 MGMxi                 MGMyi                 MGMzi  
                                  (N)                   (N)                   (N)                  (N-m)                 (N-m)                 (N-m)  
 Marine Growth:             0.000000E+00          0.000000E+00          0.000000E+00          0.000000E+00          0.000000E+00          0.000000E+00



Nodes


   i    JointIndx   JointOvrlp  InpMbrIndx     Nxi         Nyi         Nzi      InpMbrDist       R         dRdZ         t          tMG        MGDens      PropPot   FilledFlag   FillDens   FillFSLoc       Cd          Ca          Cp         AxCa        AxCp        JAxCd       JAxCa       JAxCp    NConn  Connection List
  (-)      (-)         (-)         (-)         (m)         (m)         (m)          (-)         (m)         (-)        (m)         (m)       (kg/m^3)      (-)         (-)       (kg/m^3)       (-)         (-)         (-)         (-)         (-)         (-)         (-)         (-)         (-)      (-)                  
     1           1           0           1     27.3750     27.3750      7.6670      0.0000   5.250E+00   0.000E+00   0.000E+00   0.000E+00   0.000E+00           T           F   0.000E+00   0.000E+00   0.000E+00   0.000E+00   0.000E+00   0.000E+00   0.000E+00   0.000E+00   0.000E+00   0.000E+00      1   140
     2           2           0           1     27.3750     27.3750    -18.3330      1.0000   5.250E+00   0.000E+00   0.000E+00   0.000E+00   0.000E+00           T           F   0.000E+00   0.000E+00   0.000E+00   0.000E+00   0.000E+00   0.000E+00   0.000E+00   0.000E+00   0.000E+00   0.000E+00      1     1
     3           3           0           2    -27.3750     27.3750      7.6670      0.0000   5.250E+00   0.000E+00   0.000E+00   0.000E+00   0.000E+00           T           F   0.000E+00   0.000E+00   0.000E+00   0.000E+00   0.000E+00   0.000E+00   0.000E+00   0.000E+00   0.000E+00   0.000E+00      1   143
     4           4           0           2    -27.3750     27.3750    -18.3330      1.0000   5.250E+00   0.000E+00   0.000E+00   0.000E+00   0.000E+00           T           F   0.000E+00   0.000E+00   0.000E+00   0.000E+00   0.000E+00   0.000E+00   0.000E+00   0.000E+00   0.000E+00   0.000E+00      1     2
     5           5           0           3    -27.3750    -27.3750      7.6670      0.0000   5.250E+00   0.000E+00   0.000E+00   0.000E+00   0.000E+00           T           F   0.000E+00   0.000E+00   0.000E+00   0.000E+00   0.000E+00   0.000E+00   0.000E+00   0.000E+00   0.000E+00   0.000E+00      1   146
     6           6           0           3    -27.3750    -27.3750    -18.3330      1.0000   5.250E+00   0.000E+00   0.000E+00   0.000E+00   0.000E+00           T           F   0.000E+00   0.000E+00   0.000E+00   0.000E+00   0.000E+00   0.000E+00   0.000E+00   0.000E+00   0.000E+00   0.000E+00      1     3
     7           7           0           4     27.3750    -27.3750      7.6670      0.0000   5.250E+00   0.000E+00   0.000E+00   0.000E+00   0.000E+00           T           F   0.000E+00   0.000E+00   0.000E+00   0.000E+00   0.000E+00   0.000E+00   0.000E+00   0.000E+00   0.000E+00   0.000E+00      1   149
     8           8           0           4     27.3750    -27.3750    -18.3330      1.0000   5.250E+00   0.000E+00   0.000E+00   0.000E+00   0.000E+00           T           F   0.000E+00   0.000E+00   0.000E+00   0.000E+00   0.000E+00   0.000E+00   0.000E+00   0.000E+00   0.000E+00   0.000E+00      1     4
     9           9           0           5     22.1250     27.3750    -17.5830      0.0000   7.500E-01   0.000E+00   0.000E+00   0.000E+00   0.000E+00           T           F   0.000E+00   0.000E+00   0.000E+00   0.000E+00   0.000E+00   0.000E+00   0.000E+00   0.000E+00   0.000E+00   0.000E+00      1    71
    10          10           0           5    -22.1250     27.3750    -17.5830      1.0000   7.500E-01   0.000E+00   0.000E+00   0.000E+00   0.000E+00           T           F   0.000E+00   0.000E+00   0.000E+00   0.000E+00   0.000E+00   0.000E+00   0.000E+00   0.000E+00   0.000E+00   0.000E+00      1     5
    11          11           0           6    -27.3750     22.1250    -17.5830      0.0000   7.500E-01   0.000E+00   0.000E+00   0.000E+00   0.000E+00           T           F   0.000E+00   0.000E+00   0.000E+00   0.000E+00   0.000E+00   0.000E+00   0.000E+00   0.000E+00   0.000E+00   0.000E+00      1    93
    12          12           0           6    -27.3750    -22.1250    -17.5830      1.0000   7.500E-01   0.000E+00   0.000E+00   0.000E+00   0.000E+00           T           F   0.000E+00   0.000E+00   0.000E+00   0.000E+00   0.000E+00   0.000E+00   0.000E+00   0.000E+00   0.000E+00   0.000E+00      1     6
    13          13           0           7    -22.1250    -27.3750    -17.5830      0.0000   7.500E-01   0.000E+00   0.000E+00   0.000E+00   0.000E+00           T           F   0.000E+00   0.000E+00   0.000E+00   0.000E+00   0.000E+00   0.000E+00   0.000E+00   0.000E+00   0.000E+00   0.000E+00      1     7
    14          14           0           7     22.1250    -27.3750    -17.5830      1.0000   7.500E-01   0.000E+00   0.000E+00   0.000E+00   0.000E+00           T           F   0.000E+00   0.000E+00   0.000E+00   0.000E+00   0.000E+00   0.000E+00   0.000E+00   0.000E+00   0.000E+00   0.000E+00      1   115
    15          15           0           8     27.3750    -22.1250    -17.5830      0.0000   7.500E-01   0.000E+00   0.000E+00   0.000E+00   0.000E+00           T           F   0.000E+00   0.000E+00   0.000E+00   0.000E+00   0.000E+00   0.000E+00   0.000E+00   0.000E+00   0.000E+00   0.000E+00      1     8
    16          16           0           8     27.3750     22.1250    -17.5830      1.0000   7.500E-01   0.000E+00   0.000E+00   0.000E+00   0.000E+00           T           F   0.000E+00   0.000E+00   0.000E+00   0.000E+00   0.000E+00   0.000E+00   0.000E+00   0.000E+00   0.000E+00   0.000E+00      1   137
    17          17           0           9      0.0000      0.0000    -18.3230      0.0000   5.250E+00   0.000E+00   0.000E+00   0.000E+00   0.000E+00           T           F   0.000E+00   0.000E+00   0.000E+00   0.000E+00   0.000E+00   0.000E+00   0.000E+00   0.000E+00   0.000E+00   0.000E+00      1     9
    18          18           0           9      0.0000      0.0000    -18.3330      1.0000   5.250E+00   0.000E+00   0.000E+00   0.000E+00   0.000E+00           T           F   0.000E+00   0.000E+00   0.000E+00   0.000E+00   0.000E+00   0.000E+00   0.000E+00   0.000E+00   0.000E+00   0.000E+00      1     9
    19          19           0           1     27.3750     27.3750      0.0000      0.2949   5.250E+00   0.000E+00   0.000E+00   0.000E+00   0.000E+00           T           F   0.000E+00   0.000E+00   0.000E+00   0.000E+00   0.000E+00   0.000E+00   0.000E+00   0.000E+00   0.000E+00   0.000E+00      1    22
    20          20           0           2    -27.3750     27.3750      0.0000      0.2949   5.250E+00   0.000E+00   0.000E+00   0.000E+00   0.000E+00           T           F   0.000E+00   0.000E+00   0.000E+00   0.000E+00   0.000E+00   0.000E+00   0.000E+00   0.000E+00   0.000E+00   0.000E+00      1    31
    21          21           0           3    -27.3750    -27.3750      0.0000      0.2949   5.250E+00   0.000E+00   0.000E+00   0.000E+00   0.000E+00           T           F   0.000E+00   0.000E+00   0.000E+00   0.000E+00   0.000E+00   0.000E+00   0.000E+00   0.000E+00   0.000E+00   0.000E+00      1    40
    22          22           0           4     27.3750    -27.3750      0.0000      0.2949   5.250E+00   0.000E+00   0.000E+00   0.000E+00   0.000E+00           T           F   0.000E+00   0.000E+00   0.000E+00   0.000E+00   0.000E+00   0.000E+00   0.000E+00   0.000E+00   0.000E+00   0.000E+00      1    49
    23          -1           0           1     27.3750     27.3750    -16.4997      0.9295   5.250E+00   0.000E+00   0.000E+00   0.000E+00   0.000E+00           T           F   0.000E+00   0.000E+00   0.000E+00   0.000E+00   0.000E+00   0.000E+00   0.000E+00   0.000E+00   0.000E+00   0.000E+00      2     1    14
    24          -1           0           1     27.3750     27.3750    -14.6664      0.8590   5.250E+00   0.000E+00   0.000E+00   0.000E+00   0.000E+00           T           F   0.000E+00   0.000E+00   0.000E+00   0.000E+00   0.000E+00   0.000E+00   0.000E+00   0.000E+00   0.000E+00   0.000E+00      2    14    15
    25          -1           0           1     27.3750     27.3750    -12.8331      0.7885   5.250E+00   0.000E+00   0.000E+00   0.000E+00   0.000E+00           T           F   0.000E+00   0.000E+00   0.000E+00   0.000E+00   0.000E+00   0.000E+00   0.000E+00   0.000E+00   0.000E+00   0.000E+00      2    15    16
    26          -1           0           1     27.3750     27.3750    -10.9998      0.7180   5.250E+00   0.000E+00   0.000E+00   0.000E+00   0.000E+00           T           F   0.000E+00   0.000E+00   0.000E+00   0.000E+00   0.000E+00   0.000E+00   0.000E+00   0.000E+00   0.000E+00   0.000E+00      2    16    17
    27          -1           0           1     27.3750     27.3750     -9.1665      0.6474   5.250E+00   0.000E+00   0.000E+00   0.000E+00   0.000E+00           T           F   0.000E+00   0.000E+00   0.000E+00   0.000E+00   0.000E+00   0.000E+00   0.000E+00   0.000E+00   0.000E+00   0.000E+00      2    17    18
    28          -1           0           1     27.3750     27.3750     -7.3332      0.5769   5.250E+00   0.000E+00   0.000E+00   0.000E+00   0.000E+00           T           F   0.000E+00   0.000E+00   0.000E+00   0.000E+00   0.000E+00   0.000E+00   0.000E+00   0.000E+00   0.000E+00   0.000E+00      2    18    19
    29          -1           0           1     27.3750     27.3750     -5.4999      0.5064   5.250E+00   0.000E+00   0.000E+00   0.000E+00   0.000E+00           T           F   0.000E+00   0.000E+00   0.000E+00   0.000E+00   0.000E+00   0.000E+00   0.000E+00   0.000E+00   0.000E+00   0.000E+00      2    19    20
    30          -1           0           1     27.3750     27.3750     -3.6666      0.4359   5.250E+00   0.000E+00   0.000E+00   0.000E+00   0.000E+00           T           F   0.000E+00   0.000E+00   0.000E+00   0.000E+00   0.000E+00   0.000E+00   0.000E+00   0.000E+00   0.000E+00   0.000E+00      2    20    21
    31          -1           0           1     27.3750     27.3750     -1.8333      0.3654   5.250E+00   0.000E+00   0.000E+00   0.000E+00   0.000E+00           T           F   0.000E+00   0.000E+00   0.000E+00   0.000E+00   0.000E+00   0.000E+00   0.000E+00   0.000E+00   0.000E+00   0.000E+00      2    21    22
    32          -1           0           2    -27.3750     27.3750    -16.4997      0.9295   5.250E+00   0.000E+00   0.000E+00   0.000E+00   0.000E+00           T           F   0.000E+00   0.000E+00   0.000E+00   0.000E+00   0.000E+00   0.000E+00   0.000E+00   0.000E+00   0.000E+00   0.000E+00      2     2    23
    33          -1           0           2    -27.3750     27.3750    -14.6664      0.8590   5.250E+00   0.000E+00   0.000E+00   0.000E+00   0.000E+00           T           F   0.000E+00   0.000E+00   0.000E+00   0.000E+00   0.000E+00   0.000E+00   0.000E+00   0.000E+00   0.000E+00   0.000E+00      2    23    24
    34          -1           0           2    -27.3750     27.3750    -12.8331      0.7885   5.250E+00   0.000E+00   0.000E+00   0.000E+00   0.000E+00           T           F   0.000E+00   0.000E+00   0.000E+00   0.000E+00   0.000E+00   0.000E+00   0.000E+00   0.000E+00   0.000E+00   0.000E+00      2    24    25
    35          -1           0           2    -27.3750     27.3750    -10.9998      0.7180   5.250E+00   0.000E+00   0.000E+00   0.000E+00   0.000E+00           T           F   0.000E+00   0.000E+00   0.000E+00   0.000E+00   0.000E+00   0.000E+00   0.000E+00   0.000E+00   0.000E+00   0.000E+00      2    25    26
    36          -1           0           2    -27.3750     27.3750     -9.1665      0.6474   5.250E+00   0.000E+00   0.000E+00   0.000E+00   0.000E+00           T           F   0.000E+00   0.000E+00   0.000E+00   0.000E+00   0.000E+00   0.000E+00   0.000E+00   0.000E+00   0.000E+00   0.000E+00      2    26    27
    37          -1           0           2    -27.3750     27.3750     -7.3332      0.5769   5.250E+00   0.000E+00   0.000E+00   0.000E+00   0.000E+00           T           F   0.000E+00   0.000E+00   0.000E+00   0.000E+00   0.000E+00   0.000E+00   0.000E+00   0.000E+00   0.000E+00   0.000E+00      2    27    28
    38          -1           0           2    -27.3750     27.3750     -5.4999      0.5064   5.250E+00   0.000E+00   0.000E+00   0.000E+00   0.000E+00           T           F   0.000E+00   0.000E+00   0.000E+00   0.000E+00   0.000E+00   0.000E+00   0.000E+00   0.000E+00   0.000E+00   0.000E+00      2    28    29
    39          -1           0           2    -27.3750     27.3750     -3.6666      0.4359   5.250E+00   0.000E+00   0.000E+00   0.000E+00   0.000E+00           T           F   0.000E+00   0.000E+00   0.000E+00   0.000E+00   0.000E+00   0.000E+00   0.000E+00   0.000E+00   0.000E+00   0.000E+00      2    29    30
    40          -1           0           2    -27.3750     27.3750     -1.8333      0.3654   5.250E+00   0.000E+00   0.000E+00   0.000E+00   0.000E+00           T           F   0.000E+00   0.000E+00   0.000E+00   0.000E+00   0.000E+00   0.000E+00   0.000E+00   0.000E+00   0.000E+00   0.000E+00      2    30    31
    41          -1           0           3    -27.3750    -27.3750    -16.4997      0.9295   5.250E+00   0.000E+00   0.000E+00   0.000E+00   0.000E+00           T           F   0.000E+00   0.000E+00   0.000E+00   0.000E+00   0.000E+00   0.000E+00   0.000E+00   0.000E+00   0.000E+00   0.000E+00      2     3    32
    42          -1           0           3    -27.3750    -27.3750    -14.6664      0.8590   5.250E+00   0.000E+00   0.000E+00   0.000E+00   0.000E+00           T           F   0.000E+00   0.000E+00   0.000E+00   0.000E+00   0.000E+00   0.000E+00   0.000E+00   0.000E+00   0.000E+00   0.000E+00      2    32    33
    43          -1           0           3    -27.3750    -27.3750    -12.8331      0.7885   5.250E+00   0.000E+00   0.000E+00   0.000E+00   0.000E+00           T           F   0.000E+00   0.000E+00   0.000E+00   0.000E+00   0.000E+00   0.000E+00   0.000E+00   0.000E+00   0.000E+00   0.000E+00      2    33    34
    44          -1           0           3    -27.3750    -27.3750    -10.9998      0.7180   5.250E+00   0.000E+00   0.000E+00   0.000E+00   0.000E+00           T           F   0.000E+00   0.000E+00   0.000E+00   0.000E+00   0.000E+00   0.000E+00   0.000E+00   0.000E+00   0.000E+00   0.000E+00      2    34    35
    45          -1           0           3    -27.3750    -27.3750     -9.1665      0.6474   5.250E+00   0.000E+00   0.000E+00   0.000E+00   0.000E+00           T           F   0.000E+00   0.000E+00   0.000E+00   0.000E+00   0.000E+00   0.000E+00   0.000E+00   0.000E+00   0.000E+00   0.000E+00      2    35    36
    46          -1           0           3    -27.3750    -27.3750     -7.3332      0.5769   5.250E+00   0.000E+00   0.000E+00   0.000E+00   0.000E+00           T           F   0.000E+00   0.000E+00   0.000E+00   0.000E+00   0.000E+00   0.000E+00   0.000E+00   0.000E+00   0.000E+00   0.000E+00      2    36    37
    47          -1           0           3    -27.3750    -27.3750     -5.4999      0.5064   5.250E+00   0.000E+00   0.000E+00   0.000E+00   0.000E+00           T           F   0.000E+00   0.000E+00   0.000E+00   0.000E+00   0.000E+00   0.000E+00   0.000E+00   0.000E+00   0.000E+00   0.000E+00      2    37    38
    48          -1           0           3    -27.3750    -27.3750     -3.6666      0.4359   5.250E+00   0.000E+00   0.000E+00   0.000E+00   0.000E+00           T           F   0.000E+00   0.000E+00   0.000E+00   0.000E+00   0.000E+00   0.000E+00   0.000E+00   0.000E+00   0.000E+00   0.000E+00      2    38    39
    49          -1           0           3    -27.3750    -27.3750     -1.8333      0.3654   5.250E+00   0.000E+00   0.000E+00   0.000E+00   0.000E+00           T           F   0.000E+00   0.000E+00   0.000E+00   0.000E+00   0.000E+00   0.000E+00   0.000E+00   0.000E+00   0.000E+00   0.000E+00      2    39    40
    50          -1           0           4     27.3750    -27.3750    -16.4997      0.9295   5.250E+00   0.000E+00   0.000E+00   0.000E+00   0.000E+00           T           F   0.000E+00   0.000E+00   0.000E+00   0.000E+00   0.000E+00   0.000E+00   0.000E+00   0.000E+00   0.000E+00   0.000E+00      2     4    41
    51          -1           0           4     27.3750    -27.3750    -14.6664      0.8590   5.250E+00   0.000E+00   0.000E+00   0.000E+00   0.000E+00           T           F   0.000E+00   0.000E+00   0.000E+00   0.000E+00   0.000E+00   0.000E+00   0.000E+00   0.000E+00   0.000E+00   0.000E+00      2    41    42
    52          -1           0           4     27.3750    -27.3750    -12.8331      0.7885   5.250E+00   0.000E+00   0.000E+00   0.000E+00   0.000E+00           T           F   0.000E+00   0.000E+00   0.000E+00   0.000E+00   0.000E+00   0.000E+00   0.000E+00   0.000E+00   0.000E+00   0.000E+00      2    42    43
    53          -1           0           4     27.3750    -27.3750    -10.9998      0.7180   5.250E+00   0.000E+00   0.000E+00   0.000E+00   0.000E+00           T           F   0.000E+00   0.000E+00   0.000E+00   0.000E+00   0.000E+00   0.000E+00   0.000E+00   0.000E+00   0.000E+00   0.000E+00      2    43    44
    54          -1           0           4     27.3750    -27.3750     -9.1665      0.6474   5.250E+00   0.000E+00   0.000E+00   0.000E+00   0.000E+00           T           F   0.000E+00   0.000E+00   0.000E+00   0.000E+00   0.000E+00   0.000E+00   0.000E+00   0.000E+00   0.000E+00   0.000E+00      2    44    45
    55          -1           0           4     27.3750    -27.3750     -7.3332      0.5769   5.250E+00   0.000E+00   0.000E+00   0.000E+00   0.000E+00           T           F   0.000E+00   0.000E+00   0.000E+00   0.000E+00   0.000E+00   0.000E+00   0.000E+00   0.000E+00   0.000E+00   0.000E+00      2    45    46
    56          -1           0           4     27.3750    -27.3750     -5.4999      0.5064   5.250E+00   0.000E+00   0.000E+00   0.000E+00   0.000E+00           T           F   0.000E+00   0.000E+00   0.000E+00   0.000E+00   0.000E+00   0.000E+00   0.000E+00   0.000E+00   0.000E+00   0.000E+00      2    46    47
    57          -1           0           4     27.3750    -27.3750     -3.6666      0.4359   5.250E+00   0.000E+00   0.000E+00   0.000E+00   0.000E+00           T           F   0.000E+00   0.000E+00   0.000E+00   0.000E+00   0.000E+00   0.000E+00   0.000E+00   0.000E+00   0.000E+00   0.000E+00      2    47    48
    58          -1           0           4     27.3750    -27.3750     -1.8333      0.3654   5.250E+00   0.000E+00   0.000E+00   0.000E+00   0.000E+00           T           F   0.000E+00   0.000E+00   0.000E+00   0.000E+00   0.000E+00   0.000E+00   0.000E+00   0.000E+00   0.000E+00   0.000E+00      2    48    49
    59          -1           0           5    -20.2011     27.3750    -17.5830      0.9565   7.500E-01   0.000E+00   0.000E+00   0.000E+00   0.000E+00           T           F   0.000E+00   0.000E+00   0.000E+00   0.000E+00   0.000E+00   0.000E+00   0.000E+00   0.000E+00   0.000E+00   0.000E+00      2     5    50
    60          -1           0           5    -18.2772     27.3750    -17.5830      0.9130   7.500E-01   0.000E+00   0.000E+00   0.000E+00   0.000E+00           T           F   0.000E+00   0.000E+00   0.000E+00   0.000E+00   0.000E+00   0.000E+00   0.000E+00   0.000E+00   0.000E+00   0.000E+00      2    50    51
    61          -1           0           5    -16.3533     27.3750    -17.5830      0.8696   7.500E-01   0.000E+00   0.000E+00   0.000E+00   0.000E+00           T           F   0.000E+00   0.000E+00   0.000E+00   0.000E+00   0.000E+00   0.000E+00   0.000E+00   0.000E+00   0.000E+00   0.000E+00      2    51    52
    62          -1           0           5    -14.4293     27.3750    -17.5830      0.8261   7.500E-01   0.000E+00   0.000E+00   0.000E+00   0.000E+00           T           F   0.000E+00   0.000E+00   0.000E+00   0.000E+00   0.000E+00   0.000E+00   0.000E+00   0.000E+00   0.000E+00   0.000E+00      2    52    53
    63          -1           0           5    -12.5054     27.3750    -17.5830      0.7826   7.500E-01   0.000E+00   0.000E+00   0.000E+00   0.000E+00           T           F   0.000E+00   0.000E+00   0.000E+00   0.000E+00   0.000E+00   0.000E+00   0.000E+00   0.000E+00   0.000E+00   0.000E+00      2    53    54
    64          -1           0           5    -10.5815     27.3750    -17.5830      0.7391   7.500E-01   0.000E+00   0.000E+00   0.000E+00   0.000E+00           T           F   0.000E+00   0.000E+00   0.000E+00   0.000E+00   0.000E+00   0.000E+00   0.000E+00   0.000E+00   0.000E+00   0.000E+00      2    54    55
    65          -1           0           5     -8.6576     27.3750    -17.5830      0.6957   7.500E-01   0.000E+00   0.000E+00   0.000E+00   0.000E+00           T           F   0.000E+00   0.000E+00   0.000E+00   0.000E+00   0.000E+00   0.000E+00   0.000E+00   0.000E+00   0.000E+00   0.000E+00      2    55    56
    66          -1           0           5     -6.7337     27.3750    -17.5830      0.6522   7.500E-01   0.000E+00   0.000E+00   0.000E+00   0.000E+00           T           F   0.000E+00   0.000E+00   0.000E+00   0.000E+00   0.000E+00   0.000E+00   0.000E+00   0.000E+00   0.000E+00   0.000E+00      2    56    57
    67          -1           0           5     -4.8098     27.3750    -17.5830      0.6087   7.500E-01   0.000E+00   0.000E+00   0.000E+00   0.000E+00           T           F   0.000E+00   0.000E+00   0.000E+00   0.000E+00   0.000E+00   0.000E+00   0.000E+00   0.000E+00   0.000E+00   0.000E+00      2    57    58
    68          -1           0           5     -2.8859     27.3750    -17.5830      0.5652   7.500E-01   0.000E+00   0.000E+00   0.000E+00   0.000E+00           T           F   0.000E+00   0.000E+00   0.000E+00   0.000E+00   0.000E+00   0.000E+00   0.000E+00   0.000E+00   0.000E+00   0.000E+00      2    58    59
    69          -1           0           5     -0.9620     27.3750    -17.5830      0.5217   7.500E-01   0.000E+00   0.000E+00   0.000E+00   0.000E+00           T           F   0.000E+00   0.000E+00   0.000E+00   0.000E+00   0.000E+00   0.000E+00   0.000E+00   0.000E+00   0.000E+00   0.000E+00      2    59    60
    70          -1           0           5      0.9620     27.3750    -17.5830      0.4783   7.500E-01   0.000E+00   0.000E+00   0.000E+00   0.000E+00           T           F   0.000E+00   0.000E+00   0.000E+00   0.000E+00   0.000E+00   0.000E+00   0.000E+00   0.000E+00   0.000E+00   0.000E+00      2    60    61
    71          -1           0           5      2.8859     27.3750    -17.5830      0.4348   7.500E-01   0.000E+00   0.000E+00   0.000E+00   0.000E+00           T           F   0.000E+00   0.000E+00   0.000E+00   0.000E+00   0.000E+00   0.000E+00   0.000E+00   0.000E+00   0.000E+00   0.000E+00      2    61    62
    72          -1           0           5      4.8098     27.3750    -17.5830      0.3913   7.500E-01   0.000E+00   0.000E+00   0.000E+00   0.000E+00           T           F   0.000E+00   0.000E+00   0.000E+00   0.000E+00   0.000E+00   0.000E+00   0.000E+00   0.000E+00   0.000E+00   0.000E+00      2    62    63
    73          -1           0           5      6.7337     27.3750    -17.5830      0.3478   7.500E-01   0.000E+00   0.000E+00   0.000E+00   0.000E+00           T           F   0.000E+00   0.000E+00   0.000E+00   0.000E+00   0.000E+00   0.000E+00   0.000E+00   0.000E+00   0.000E+00   0.000E+00      2    63    64
    74          -1           0           5      8.6576     27.3750    -17.5830      0.3043   7.500E-01   0.000E+00   0.000E+00   0.000E+00   0.000E+00           T           F   0.000E+00   0.000E+00   0.000E+00   0.000E+00   0.000E+00   0.000E+00   0.000E+00   0.000E+00   0.000E+00   0.000E+00      2    64    65
    75          -1           0           5     10.5815     27.3750    -17.5830      0.2609   7.500E-01   0.000E+00   0.000E+00   0.000E+00   0.000E+00           T           F   0.000E+00   0.000E+00   0.000E+00   0.000E+00   0.000E+00   0.000E+00   0.000E+00   0.000E+00   0.000E+00   0.000E+00      2    65    66
    76          -1           0           5     12.5054     27.3750    -17.5830      0.2174   7.500E-01   0.000E+00   0.000E+00   0.000E+00   0.000E+00           T           F   0.000E+00   0.000E+00   0.000E+00   0.000E+00   0.000E+00   0.000E+00   0.000E+00   0.000E+00   0.000E+00   0.000E+00      2    66    67
    77          -1           0           5     14.4293     27.3750    -17.5830      0.1739   7.500E-01   0.000E+00   0.000E+00   0.000E+00   0.000E+00           T           F   0.000E+00   0.000E+00   0.000E+00   0.000E+00   0.000E+00   0.000E+00   0.000E+00   0.000E+00   0.000E+00   0.000E+00      2    67    68
    78          -1           0           5     16.3533     27.3750    -17.5830      0.1304   7.500E-01   0.000E+00   0.000E+00   0.000E+00   0.000E+00           T           F   0.000E+00   0.000E+00   0.000E+00   0.000E+00   0.000E+00   0.000E+00   0.000E+00   0.000E+00   0.000E+00   0.000E+00      2    68    69
    79          -1           0           5     18.2772     27.3750    -17.5830      0.0870   7.500E-01   0.000E+00   0.000E+00   0.000E+00   0.000E+00           T           F   0.000E+00   0.000E+00   0.000E+00   0.000E+00   0.000E+00   0.000E+00   0.000E+00   0.000E+00   0.000E+00   0.000E+00      2    69    70
    80          -1           0           5     20.2011     27.3750    -17.5830      0.0435   7.500E-01   0.000E+00   0.000E+00   0.000E+00   0.000E+00           T           F   0.000E+00   0.000E+00   0.000E+00   0.000E+00   0.000E+00   0.000E+00   0.000E+00   0.000E+00   0.000E+00   0.000E+00      2    70    71
    81          -1           0           6    -27.3750    -20.2011    -17.5830      0.9565   7.500E-01   0.000E+00   0.000E+00   0.000E+00   0.000E+00           T           F   0.000E+00   0.000E+00   0.000E+00   0.000E+00   0.000E+00   0.000E+00   0.000E+00   0.000E+00   0.000E+00   0.000E+00      2     6    72
    82          -1           0           6    -27.3750    -18.2772    -17.5830      0.9130   7.500E-01   0.000E+00   0.000E+00   0.000E+00   0.000E+00           T           F   0.000E+00   0.000E+00   0.000E+00   0.000E+00   0.000E+00   0.000E+00   0.000E+00   0.000E+00   0.000E+00   0.000E+00      2    72    73
    83          -1           0           6    -27.3750    -16.3533    -17.5830      0.8696   7.500E-01   0.000E+00   0.000E+00   0.000E+00   0.000E+00           T           F   0.000E+00   0.000E+00   0.000E+00   0.000E+00   0.000E+00   0.000E+00   0.000E+00   0.000E+00   0.000E+00   0.000E+00      2    73    74
    84          -1           0           6    -27.3750    -14.4293    -17.5830      0.8261   7.500E-01   0.000E+00   0.000E+00   0.000E+00   0.000E+00           T           F   0.000E+00   0.000E+00   0.000E+00   0.000E+00   0.000E+00   0.000E+00   0.000E+00   0.000E+00   0.000E+00   0.000E+00      2    74    75
    85          -1           0           6    -27.3750    -12.5054    -17.5830      0.7826   7.500E-01   0.000E+00   0.000E+00   0.000E+00   0.000E+00           T           F   0.000E+00   0.000E+00   0.000E+00   0.000E+00   0.000E+00   0.000E+00   0.000E+00   0.000E+00   0.000E+00   0.000E+00      2    75    76
    86          -1           0           6    -27.3750    -10.5815    -17.5830      0.7391   7.500E-01   0.000E+00   0.000E+00   0.000E+00   0.000E+00           T           F   0.000E+00   0.000E+00   0.000E+00   0.000E+00   0.000E+00   0.000E+00   0.000E+00   0.000E+00   0.000E+00   0.000E+00      2    76    77
    87          -1           0           6    -27.3750     -8.6576    -17.5830      0.6957   7.500E-01   0.000E+00   0.000E+00   0.000E+00   0.000E+00           T           F   0.000E+00   0.000E+00   0.000E+00   0.000E+00   0.000E+00   0.000E+00   0.000E+00   0.000E+00   0.000E+00   0.000E+00      2    77    78
    88          -1           0           6    -27.3750     -6.7337    -17.5830      0.6522   7.500E-01   0.000E+00   0.000E+00   0.000E+00   0.000E+00           T           F   0.000E+00   0.000E+00   0.000E+00   0.000E+00   0.000E+00   0.000E+00   0.000E+00   0.000E+00   0.000E+00   0.000E+00      2    78    79
    89          -1           0           6    -27.3750     -4.8098    -17.5830      0.6087   7.500E-01   0.000E+00   0.000E+00   0.000E+00   0.000E+00           T           F   0.000E+00   0.000E+00   0.000E+00   0.000E+00   0.000E+00   0.000E+00   0.000E+00   0.000E+00   0.000E+00   0.000E+00      2    79    80
    90          -1           0           6    -27.3750     -2.8859    -17.5830      0.5652   7.500E-01   0.000E+00   0.000E+00   0.000E+00   0.000E+00           T           F   0.000E+00   0.000E+00   0.000E+00   0.000E+00   0.000E+00   0.000E+00   0.000E+00   0.000E+00   0.000E+00   0.000E+00      2    80    81
    91          -1           0           6    -27.3750     -0.9620    -17.5830      0.5217   7.500E-01   0.000E+00   0.000E+00   0.000E+00   0.000E+00           T           F   0.000E+00   0.000E+00   0.000E+00   0.000E+00   0.000E+00   0.000E+00   0.000E+00   0.000E+00   0.000E+00   0.000E+00      2    81    82
    92          -1           0           6    -27.3750      0.9620    -17.5830      0.4783   7.500E-01   0.000E+00   0.000E+00   0.000E+00   0.000E+00           T           F   0.000E+00   0.000E+00   0.000E+00   0.000E+00   0.000E+00   0.000E+00   0.000E+00   0.000E+00   0.000E+00   0.000E+00      2    82    83
    93          -1           0           6    -27.3750      2.8859    -17.5830      0.4348   7.500E-01   0.000E+00   0.000E+00   0.000E+00   0.000E+00           T           F   0.000E+00   0.000E+00   0.000E+00   0.000E+00   0.000E+00   0.000E+00   0.000E+00   0.000E+00   0.000E+00   0.000E+00      2    83    84
    94          -1           0           6    -27.3750      4.8098    -17.5830      0.3913   7.500E-01   0.000E+00   0.000E+00   0.000E+00   0.000E+00           T           F   0.000E+00   0.000E+00   0.000E+00   0.000E+00   0.000E+00   0.000E+00   0.000E+00   0.000E+00   0.000E+00   0.000E+00      2    84    85
    95          -1           0           6    -27.3750      6.7337    -17.5830      0.3478   7.500E-01   0.000E+00   0.000E+00   0.000E+00   0.000E+00           T           F   0.000E+00   0.000E+00   0.000E+00   0.000E+00   0.000E+00   0.000E+00   0.000E+00   0.000E+00   0.000E+00   0.000E+00      2    85    86
    96          -1           0           6    -27.3750      8.6576    -17.5830      0.3043   7.500E-01   0.000E+00   0.000E+00   0.000E+00   0.000E+00           T           F   0.000E+00   0.000E+00   0.000E+00   0.000E+00   0.000E+00   0.000E+00   0.000E+00   0.000E+00   0.000E+00   0.000E+00      2    86    87
    97          -1           0           6    -27.3750     10.5815    -17.5830      0.2609   7.500E-01   0.000E+00   0.000E+00   0.000E+00   0.000E+00           T           F   0.000E+00   0.000E+00   0.000E+00   0.000E+00   0.000E+00   0.000E+00   0.000E+00   0.000E+00   0.000E+00   0.000E+00      2    87    88
    98          -1           0           6    -27.3750     12.5054    -17.5830      0.2174   7.500E-01   0.000E+00   0.000E+00   0.000E+00   0.000E+00           T           F   0.000E+00   0.000E+00   0.000E+00   0.000E+00   0.000E+00   0.000E+00   0.000E+00   0.000E+00   0.000E+00   0.000E+00      2    88    89
    99          -1           0           6    -27.3750     14.4293    -17.5830      0.1739   7.500E-01   0.000E+00   0.000E+00   0.000E+00   0.000E+00           T           F   0.000E+00   0.000E+00   0.000E+00   0.000E+00   0.000E+00   0.000E+00   0.000E+00   0.000E+00   0.000E+00   0.000E+00      2    89    90
   100          -1           0           6    -27.3750     16.3533    -17.5830      0.1304   7.500E-01   0.000E+00   0.000E+00   0.000E+00   0.000E+00           T           F   0.000E+00   0.000E+00   0.000E+00   0.000E+00   0.000E+00   0.000E+00   0.000E+00   0.000E+00   0.000E+00   0.000E+00      2    90    91
   101          -1           0           6    -27.3750     18.2772    -17.5830      0.0870   7.500E-01   0.000E+00   0.000E+00   0.000E+00   0.000E+00           T           F   0.000E+00   0.000E+00   0.000E+00   0.000E+00   0.000E+00   0.000E+00   0.000E+00   0.000E+00   0.000E+00   0.000E+00      2    91    92
   102          -1           0           6    -27.3750     20.2011    -17.5830      0.0435   7.500E-01   0.000E+00   0.000E+00   0.000E+00   0.000E+00           T           F   0.000E+00   0.000E+00   0.000E+00   0.000E+00   0.000E+00   0.000E+00   0.000E+00   0.000E+00   0.000E+00   0.000E+00      2    92    93
   103          -1           0           7    -20.2011    -27.3750    -17.5830      0.0435   7.500E-01   0.000E+00   0.000E+00   0.000E+00   0.000E+00           T           F   0.000E+00   0.000E+00   0.000E+00   0.000E+00   0.000E+00   0.000E+00   0.000E+00   0.000E+00   0.000E+00   0.000E+00      2     7    94
   104          -1           0           7    -18.2772    -27.3750    -17.5830      0.0870   7.500E-01   0.000E+00   0.000E+00   0.000E+00   0.000E+00           T           F   0.000E+00   0.000E+00   0.000E+00   0.000E+00   0.000E+00   0.000E+00   0.000E+00   0.000E+00   0.000E+00   0.000E+00      2    94    95
   105          -1           0           7    -16.3533    -27.3750    -17.5830      0.1304   7.500E-01   0.000E+00   0.000E+00   0.000E+00   0.000E+00           T           F   0.000E+00   0.000E+00   0.000E+00   0.000E+00   0.000E+00   0.000E+00   0.000E+00   0.000E+00   0.000E+00   0.000E+00      2    95    96
   106          -1           0           7    -14.4293    -27.3750    -17.5830      0.1739   7.500E-01   0.000E+00   0.000E+00   0.000E+00   0.000E+00           T           F   0.000E+00   0.000E+00   0.000E+00   0.000E+00   0.000E+00   0.000E+00   0.000E+00   0.000E+00   0.000E+00   0.000E+00      2    96    97
   107          -1           0           7    -12.5054    -27.3750    -17.5830      0.2174   7.500E-01   0.000E+00   0.000E+00   0.000E+00   0.000E+00           T           F   0.000E+00   0.000E+00   0.000E+00   0.000E+00   0.000E+00   0.000E+00   0.000E+00   0.000E+00   0.000E+00   0.000E+00      2    97    98
   108          -1           0           7    -10.5815    -27.3750    -17.5830      0.2609   7.500E-01   0.000E+00   0.000E+00   0.000E+00   0.000E+00           T           F   0.000E+00   0.000E+00   0.000E+00   0.000E+00   0.000E+00   0.000E+00   0.000E+00   0.000E+00   0.000E+00   0.000E+00      2    98    99
   109          -1           0           7     -8.6576    -27.3750    -17.5830      0.3043   7.500E-01   0.000E+00   0.000E+00   0.000E+00   0.000E+00           T           F   0.000E+00   0.000E+00   0.000E+00   0.000E+00   0.000E+00   0.000E+00   0.000E+00   0.000E+00   0.000E+00   0.000E+00      2    99   100
   110          -1           0           7     -6.7337    -27.3750    -17.5830      0.3478   7.500E-01   0.000E+00   0.000E+00   0.000E+00   0.000E+00           T           F   0.000E+00   0.000E+00   0.000E+00   0.000E+00   0.000E+00   0.000E+00   0.000E+00   0.000E+00   0.000E+00   0.000E+00      2   100   101
   111          -1           0           7     -4.8098    -27.3750    -17.5830      0.3913   7.500E-01   0.000E+00   0.000E+00   0.000E+00   0.000E+00           T           F   0.000E+00   0.000E+00   0.000E+00   0.000E+00   0.000E+00   0.000E+00   0.000E+00   0.000E+00   0.000E+00   0.000E+00      2   101   102
   112          -1           0           7     -2.8859    -27.3750    -17.5830      0.4348   7.500E-01   0.000E+00   0.000E+00   0.000E+00   0.000E+00           T           F   0.000E+00   0.000E+00   0.000E+00   0.000E+00   0.000E+00   0.000E+00   0.000E+00   0.000E+00   0.000E+00   0.000E+00      2   102   103
   113          -1           0           7     -0.9620    -27.3750    -17.5830      0.4783   7.500E-01   0.000E+00   0.000E+00   0.000E+00   0.000E+00           T           F   0.000E+00   0.000E+00   0.000E+00   0.000E+00   0.000E+00   0.000E+00   0.000E+00   0.000E+00   0.000E+00   0.000E+00      2   103   104
   114          -1           0           7      0.9620    -27.3750    -17.5830      0.5217   7.500E-01   0.000E+00   0.000E+00   0.000E+00   0.000E+00           T           F   0.000E+00   0.000E+00   0.000E+00   0.000E+00   0.000E+00   0.000E+00   0.000E+00   0.000E+00   0.000E+00   0.000E+00      2   104   105
   115          -1           0           7      2.8859    -27.3750    -17.5830      0.5652   7.500E-01   0.000E+00   0.000E+00   0.000E+00   0.000E+00           T           F   0.000E+00   0.000E+00   0.000E+00   0.000E+00   0.000E+00   0.000E+00   0.000E+00   0.000E+00   0.000E+00   0.000E+00      2   105   106
   116          -1           0           7      4.8098    -27.3750    -17.5830      0.6087   7.500E-01   0.000E+00   0.000E+00   0.000E+00   0.000E+00           T           F   0.000E+00   0.000E+00   0.000E+00   0.000E+00   0.000E+00   0.000E+00   0.000E+00   0.000E+00   0.000E+00   0.000E+00      2   106   107
   117          -1           0           7      6.7337    -27.3750    -17.5830      0.6522   7.500E-01   0.000E+00   0.000E+00   0.000E+00   0.000E+00           T           F   0.000E+00   0.000E+00   0.000E+00   0.000E+00   0.000E+00   0.000E+00   0.000E+00   0.000E+00   0.000E+00   0.000E+00      2   107   108
   118          -1           0           7      8.6576    -27.3750    -17.5830      0.6957   7.500E-01   0.000E+00   0.000E+00   0.000E+00   0.000E+00           T           F   0.000E+00   0.000E+00   0.000E+00   0.000E+00   0.000E+00   0.000E+00   0.000E+00   0.000E+00   0.000E+00   0.000E+00      2   108   109
   119          -1           0           7     10.5815    -27.3750    -17.5830      0.7391   7.500E-01   0.000E+00   0.000E+00   0.000E+00   0.000E+00           T           F   0.000E+00   0.000E+00   0.000E+00   0.000E+00   0.000E+00   0.000E+00   0.000E+00   0.000E+00   0.000E+00   0.000E+00      2   109   110
   120          -1           0           7     12.5054    -27.3750    -17.5830      0.7826   7.500E-01   0.000E+00   0.000E+00   0.000E+00   0.000E+00           T           F   0.000E+00   0.000E+00   0.000E+00   0.000E+00   0.000E+00   0.000E+00   0.000E+00   0.000E+00   0.000E+00   0.000E+00      2   110   111
   121          -1           0           7     14.4293    -27.3750    -17.5830      0.8261   7.500E-01   0.000E+00   0.000E+00   0.000E+00   0.000E+00           T           F   0.000E+00   0.000E+00   0.000E+00   0.000E+00   0.000E+00   0.000E+00   0.000E+00   0.000E+00   0.000E+00   0.000E+00      2   111   112
   122          -1           0           7     16.3533    -27.3750    -17.5830      0.8696   7.500E-01   0.000E+00   0.000E+00   0.000E+00   0.000E+00           T           F   0.000E+00   0.000E+00   0.000E+00   0.000E+00   0.000E+00   0.000E+00   0.000E+00   0.000E+00   0.000E+00   0.000E+00      2   112   113
   123          -1           0           7     18.2772    -27.3750    -17.5830      0.9130   7.500E-01   0.000E+00   0.000E+00   0.000E+00   0.000E+00           T           F   0.000E+00   0.000E+00   0.000E+00   0.000E+00   0.000E+00   0.000E+00   0.000E+00   0.000E+00   0.000E+00   0.000E+00      2   113   114
   124          -1           0           7     20.2011    -27.3750    -17.5830      0.9565   7.500E-01   0.000E+00   0.000E+00   0.000E+00   0.000E+00           T           F   0.000E+00   0.000E+00   0.000E+00   0.000E+00   0.000E+00   0.000E+00   0.000E+00   0.000E+00   0.000E+00   0.000E+00      2   114   115
   125          -1           0           8     27.3750    -20.2011    -17.5830      0.0435   7.500E-01   0.000E+00   0.000E+00   0.000E+00   0.000E+00           T           F   0.000E+00   0.000E+00   0.000E+00   0.000E+00   0.000E+00   0.000E+00   0.000E+00   0.000E+00   0.000E+00   0.000E+00      2     8   116
   126          -1           0           8     27.3750    -18.2772    -17.5830      0.0870   7.500E-01   0.000E+00   0.000E+00   0.000E+00   0.000E+00           T           F   0.000E+00   0.000E+00   0.000E+00   0.000E+00   0.000E+00   0.000E+00   0.000E+00   0.000E+00   0.000E+00   0.000E+00      2   116   117
   127          -1           0           8     27.3750    -16.3533    -17.5830      0.1304   7.500E-01   0.000E+00   0.000E+00   0.000E+00   0.000E+00           T           F   0.000E+00   0.000E+00   0.000E+00   0.000E+00   0.000E+00   0.000E+00   0.000E+00   0.000E+00   0.000E+00   0.000E+00      2   117   118
   128          -1           0           8     27.3750    -14.4293    -17.5830      0.1739   7.500E-01   0.000E+00   0.000E+00   0.000E+00   0.000E+00           T           F   0.000E+00   0.000E+00   0.000E+00   0.000E+00   0.000E+00   0.000E+00   0.000E+00   0.000E+00   0.000E+00   0.000E+00      2   118   119
   129          -1           0           8     27.3750    -12.5054    -17.5830      0.2174   7.500E-01   0.000E+00   0.000E+00   0.000E+00   0.000E+00           T           F   0.000E+00   0.000E+00   0.000E+00   0.000E+00   0.000E+00   0.000E+00   0.000E+00   0.000E+00   0.000E+00   0.000E+00      2   119   120
   130          -1           0           8     27.3750    -10.5815    -17.5830      0.2609   7.500E-01   0.000E+00   0.000E+00   0.000E+00   0.000E+00           T           F   0.000E+00   0.000E+00   0.000E+00   0.000E+00   0.000E+00   0.000E+00   0.000E+00   0.000E+00   0.000E+00   0.000E+00      2   120   121
   131          -1           0           8     27.3750     -8.6576    -17.5830      0.3043   7.500E-01   0.000E+00   0.000E+00   0.000E+00   0.000E+00           T           F   0.000E+00   0.000E+00   0.000E+00   0.000E+00   0.000E+00   0.000E+00   0.000E+00   0.000E+00   0.000E+00   0.000E+00      2   121   122
   132          -1           0           8     27.3750     -6.7337    -17.5830      0.3478   7.500E-01   0.000E+00   0.000E+00   0.000E+00   0.000E+00           T           F   0.000E+00   0.000E+00   0.000E+00   0.000E+00   0.000E+00   0.000E+00   0.000E+00   0.000E+00   0.000E+00   0.000E+00      2   122   123
   133          -1           0           8     27.3750     -4.8098    -17.5830      0.3913   7.500E-01   0.000E+00   0.000E+00   0.000E+00   0.000E+00           T           F   0.000E+00   0.000E+00   0.000E+00   0.000E+00   0.000E+00   0.000E+00   0.000E+00   0.000E+00   0.000E+00   0.000E+00      2   123   124
   134          -1           0           8     27.3750     -2.8859    -17.5830      0.4348   7.500E-01   0.000E+00   0.000E+00   0.000E+00   0.000E+00           T           F   0.000E+00   0.000E+00   0.000E+00   0.000E+00   0.000E+00   0.000E+00   0.000E+00   0.000E+00   0.000E+00   0.000E+00      2   124   125
   135          -1           0           8     27.3750     -0.9620    -17.5830      0.4783   7.500E-01   0.000E+00   0.000E+00   0.000E+00   0.000E+00           T           F   0.000E+00   0.000E+00   0.000E+00   0.000E+00   0.000E+00   0.000E+00   0.000E+00   0.000E+00   0.000E+00   0.000E+00      2   125   126
   136          -1           0           8     27.3750      0.9620    -17.5830      0.5217   7.500E-01   0.000E+00   0.000E+00   0.000E+00   0.000E+00           T           F   0.000E+00   0.000E+00   0.000E+00   0.000E+00   0.000E+00   0.000E+00   0.000E+00   0.000E+00   0.000E+00   0.000E+00      2   126   127
   137          -1           0           8     27.3750      2.8859    -17.5830      0.5652   7.500E-01   0.000E+00   0.000E+00   0.000E+00   0.000E+00           T           F   0.000E+00   0.000E+00   0.000E+00   0.000E+00   0.000E+00   0.000E+00   0.000E+00   0.000E+00   0.000E+00   0.000E+00      2   127   128
   138          -1           0           8     27.3750      4.8098    -17.5830      0.6087   7.500E-01   0.000E+00   0.000E+00   0.000E+00   0.000E+00           T           F   0.000E+00   0.000E+00   0.000E+00   0.000E+00   0.000E+00   0.000E+00   0.000E+00   0.000E+00   0.000E+00   0.000E+00      2   128   129
   139          -1           0           8     27.3750      6.7337    -17.5830      0.6522   7.500E-01   0.000E+00   0.000E+00   0.000E+00   0.000E+00           T           F   0.000E+00   0.000E+00   0.000E+00   0.000E+00   0.000E+00   0.000E+00   0.000E+00   0.000E+00   0.000E+00   0.000E+00      2   129   130
   140          -1           0           8     27.3750      8.6576    -17.5830      0.6957   7.500E-01   0.000E+00   0.000E+00   0.000E+00   0.000E+00           T           F   0.000E+00   0.000E+00   0.000E+00   0.000E+00   0.000E+00   0.000E+00   0.000E+00   0.000E+00   0.000E+00   0.000E+00      2   130   131
   141          -1           0           8     27.3750     10.5815    -17.5830      0.7391   7.500E-01   0.000E+00   0.000E+00   0.000E+00   0.000E+00           T           F   0.000E+00   0.000E+00   0.000E+00   0.000E+00   0.000E+00   0.000E+00   0.000E+00   0.000E+00   0.000E+00   0.000E+00      2   131   132
   142          -1           0           8     27.3750     12.5054    -17.5830      0.7826   7.500E-01   0.000E+00   0.000E+00   0.000E+00   0.000E+00           T           F   0.000E+00   0.000E+00   0.000E+00   0.000E+00   0.000E+00   0.000E+00   0.000E+00   0.000E+00   0.000E+00   0.000E+00      2   132   133
   143          -1           0           8     27.3750     14.4293    -17.5830      0.8261   7.500E-01   0.000E+00   0.000E+00   0.000E+00   0.000E+00           T           F   0.000E+00   0.000E+00   0.000E+00   0.000E+00   0.000E+00   0.000E+00   0.000E+00   0.000E+00   0.000E+00   0.000E+00      2   133   134
   144          -1           0           8     27.3750     16.3533    -17.5830      0.8696   7.500E-01   0.000E+00   0.000E+00   0.000E+00   0.000E+00           T           F   0.000E+00   0.000E+00   0.000E+00   0.000E+00   0.000E+00   0.000E+00   0.000E+00   0.000E+00   0.000E+00   0.000E+00      2   134   135
   145          -1           0           8     27.3750     18.2772    -17.5830      0.9130   7.500E-01   0.000E+00   0.000E+00   0.000E+00   0.000E+00           T           F   0.000E+00   0.000E+00   0.000E+00   0.000E+00   0.000E+00   0.000E+00   0.000E+00   0.000E+00   0.000E+00   0.000E+00      2   135   136
   146          -1           0           8     27.3750     20.2011    -17.5830      0.9565   7.500E-01   0.000E+00   0.000E+00   0.000E+00   0.000E+00           T           F   0.000E+00   0.000E+00   0.000E+00   0.000E+00   0.000E+00   0.000E+00   0.000E+00   0.000E+00   0.000E+00   0.000E+00      2   136   137
   147          -1           0           1     27.3750     27.3750      1.9167      0.2212   5.250E+00   0.000E+00   0.000E+00   0.000E+00   0.000E+00           T           F   0.000E+00   0.000E+00   0.000E+00   0.000E+00   0.000E+00   0.000E+00   0.000E+00   0.000E+00   0.000E+00   0.000E+00      2    10   138
   148          -1           0           1     27.3750     27.3750      3.8335      0.1474   5.250E+00   0.000E+00   0.000E+00   0.000E+00   0.000E+00           T           F   0.000E+00   0.000E+00   0.000E+00   0.000E+00   0.000E+00   0.000E+00   0.000E+00   0.000E+00   0.000E+00   0.000E+00      2   138   139
   149          -1           0           1     27.3750     27.3750      5.7502      0.0737   5.250E+00   0.000E+00   0.000E+00   0.000E+00   0.000E+00           T           F   0.000E+00   0.000E+00   0.000E+00   0.000E+00   0.000E+00   0.000E+00   0.000E+00   0.000E+00   0.000E+00   0.000E+00      2   139   140
   150          -1           0           2    -27.3750     27.3750      1.9167      0.2212   5.250E+00   0.000E+00   0.000E+00   0.000E+00   0.000E+00           T           F   0.000E+00   0.000E+00   0.000E+00   0.000E+00   0.000E+00   0.000E+00   0.000E+00   0.000E+00   0.000E+00   0.000E+00      2    11   141
   151          -1           0           2    -27.3750     27.3750      3.8335      0.1474   5.250E+00   0.000E+00   0.000E+00   0.000E+00   0.000E+00           T           F   0.000E+00   0.000E+00   0.000E+00   0.000E+00   0.000E+00   0.000E+00   0.000E+00   0.000E+00   0.000E+00   0.000E+00      2   141   142
   152          -1           0           2    -27.3750     27.3750      5.7502      0.0737   5.250E+00   0.000E+00   0.000E+00   0.000E+00   0.000E+00           T           F   0.000E+00   0.000E+00   0.000E+00   0.000E+00   0.000E+00   0.000E+00   0.000E+00   0.000E+00   0.000E+00   0.000E+00      2   142   143
   153          -1           0           3    -27.3750    -27.3750      1.9167      0.2212   5.250E+00   0.000E+00   0.000E+00   0.000E+00   0.000E+00           T           F   0.000E+00   0.000E+00   0.000E+00   0.000E+00   0.000E+00   0.000E+00   0.000E+00   0.000E+00   0.000E+00   0.000E+00      2    12   144
   154          -1           0           3    -27.3750    -27.3750      3.8335      0.1474   5.250E+00   0.000E+00   0.000E+00   0.000E+00   0.000E+00           T           F   0.000E+00   0.000E+00   0.000E+00   0.000E+00   0.000E+00   0.000E+00   0.000E+00   0.000E+00   0.000E+00   0.000E+00      2   144   145
   155          -1           0           3    -27.3750    -27.3750      5.7502      0.0737   5.250E+00   0.000E+00   0.000E+00   0.000E+00   0.000E+00           T           F   0.000E+00   0.000E+00   0.000E+00   0.000E+00   0.000E+00   0.000E+00   0.000E+00   0.000E+00   0.000E+00   0.000E+00      2   145   146
   156          -1           0           4     27.3750    -27.3750      1.9167      0.2212   5.250E+00   0.000E+00   0.000E+00   0.000E+00   0.000E+00           T           F   0.000E+00   0.000E+00   0.000E+00   0.000E+00   0.000E+00   0.000E+00   0.000E+00   0.000E+00   0.000E+00   0.000E+00      2    13   147
   157          -1           0           4     27.3750    -27.3750      3.8335      0.1474   5.250E+00   0.000E+00   0.000E+00   0.000E+00   0.000E+00           T           F   0.000E+00   0.000E+00   0.000E+00   0.000E+00   0.000E+00   0.000E+00   0.000E+00   0.000E+00   0.000E+00   0.000E+00      2   147   148
   158          -1           0           4     27.3750    -27.3750      5.7502      0.0737   5.250E+00   0.000E+00   0.000E+00   0.000E+00   0.000E+00           T           F   0.000E+00   0.000E+00   0.000E+00   0.000E+00   0.000E+00   0.000E+00   0.000E+00   0.000E+00   0.000E+00   0.000E+00      2   148   149
   159          19           0           1     27.3750     27.3750      0.0000      0.2949   5.250E+00   0.000E+00   0.000E+00   0.000E+00   0.000E+00           T           F   0.000E+00   0.000E+00   0.000E+00   0.000E+00   0.000E+00   0.000E+00   0.000E+00   0.000E+00   0.000E+00   0.000E+00      1    10
   160          20           0           2    -27.3750     27.3750      0.0000      0.2949   5.250E+00   0.000E+00   0.000E+00   0.000E+00   0.000E+00           T           F   0.000E+00   0.000E+00   0.000E+00   0.000E+00   0.000E+00   0.000E+00   0.000E+00   0.000E+00   0.000E+00   0.000E+00      1    11
   161          21           0           3    -27.3750    -27.3750      0.0000      0.2949   5.250E+00   0.000E+00   0.000E+00   0.000E+00   0.000E+00           T           F   0.000E+00   0.000E+00   0.000E+00   0.000E+00   0.000E+00   0.000E+00   0.000E+00   0.000E+00   0.000E+00   0.000E+00      1    12
   162          22           0           4     27.3750    -27.3750      0.0000      0.2949   5.250E+00   0.000E+00   0.000E+00   0.000E+00   0.000E+00           T           F   0.000E+00   0.000E+00   0.000E+00   0.000E+00   0.000E+00   0.000E+00   0.000E+00   0.000E+00   0.000E+00   0.000E+00      1    13



Elements


   i    node1  node2      Length       Volume       MGVolume          R1          tMG1           t1             R2          tMG2           t2          MGDens1       MGDens2        PropPot     FilledFlag   FillDensity    FillFSLoc     FillMass         Cd1            Ca1          Cp1          AxCa1         AxCp1        JAxCd1        JAxCa1        JAxCp1          Cd2           Ca2           Cp2          AxCa2         AxCp2        JAxCd2        JAxCa2        JAxCp2   
  (-)    (-)    (-)        (m)         (m^3)         (m^3)           (m)           (m)           (m)           (m)           (m)           (m)        (kg/m^3)      (kg/m^3)         (-)           (-)        (kg/m^3)         (-)          (kg)           (-)            (-)          (-)           (-)           (-)           (-)           (-)           (-)           (-)            (-)          (-)           (-)           (-)           (-)           (-)           (-)    
     1      2     23   1.83330E+00   0.00000E+00   0.00000E+00   5.25000E+00   0.00000E+00   0.00000E+00   5.25000E+00   0.00000E+00   0.00000E+00   0.00000E+00   0.00000E+00             T             F   0.00000E+00   0.00000E+00   0.00000E+00   0.00000E+00   0.00000E+00   0.00000E+00   0.00000E+00   0.00000E+00   0.00000E+00   0.00000E+00   0.00000E+00   0.00000E+00   0.00000E+00   0.00000E+00   0.00000E+00   0.00000E+00   0.00000E+00   0.00000E+00   0.00000E+00
     2      4     32   1.83330E+00   0.00000E+00   0.00000E+00   5.25000E+00   0.00000E+00   0.00000E+00   5.25000E+00   0.00000E+00   0.00000E+00   0.00000E+00   0.00000E+00             T             F   0.00000E+00   0.00000E+00   0.00000E+00   0.00000E+00   0.00000E+00   0.00000E+00   0.00000E+00   0.00000E+00   0.00000E+00   0.00000E+00   0.00000E+00   0.00000E+00   0.00000E+00   0.00000E+00   0.00000E+00   0.00000E+00   0.00000E+00   0.00000E+00   0.00000E+00
     3      6     41   1.83330E+00   0.00000E+00   0.00000E+00   5.25000E+00   0.00000E+00   0.00000E+00   5.25000E+00   0.00000E+00   0.00000E+00   0.00000E+00   0.00000E+00             T             F   0.00000E+00   0.00000E+00   0.00000E+00   0.00000E+00   0.00000E+00   0.00000E+00   0.00000E+00   0.00000E+00   0.00000E+00   0.00000E+00   0.00000E+00   0.00000E+00   0.00000E+00   0.00000E+00   0.00000E+00   0.00000E+00   0.00000E+00   0.00000E+00   0.00000E+00
     4      8     50   1.83330E+00   0.00000E+00   0.00000E+00   5.25000E+00   0.00000E+00   0.00000E+00   5.25000E+00   0.00000E+00   0.00000E+00   0.00000E+00   0.00000E+00             T             F   0.00000E+00   0.00000E+00   0.00000E+00   0.00000E+00   0.00000E+00   0.00000E+00   0.00000E+00   0.00000E+00   0.00000E+00   0.00000E+00   0.00000E+00   0.00000E+00   0.00000E+00   0.00000E+00   0.00000E+00   0.00000E+00   0.00000E+00   0.00000E+00   0.00000E+00
     5     10     59   1.92391E+00   0.00000E+00   0.00000E+00   7.50000E-01   0.00000E+00   0.00000E+00   7.50000E-01   0.00000E+00   0.00000E+00   0.00000E+00   0.00000E+00             T             F   0.00000E+00   0.00000E+00   0.00000E+00   0.00000E+00   0.00000E+00   0.00000E+00   0.00000E+00   0.00000E+00   0.00000E+00   0.00000E+00   0.00000E+00   0.00000E+00   0.00000E+00   0.00000E+00   0.00000E+00   0.00000E+00   0.00000E+00   0.00000E+00   0.00000E+00
     6     12     81   1.92391E+00   0.00000E+00   0.00000E+00   7.50000E-01   0.00000E+00   0.00000E+00   7.50000E-01   0.00000E+00   0.00000E+00   0.00000E+00   0.00000E+00             T             F   0.00000E+00   0.00000E+00   0.00000E+00   0.00000E+00   0.00000E+00   0.00000E+00   0.00000E+00   0.00000E+00   0.00000E+00   0.00000E+00   0.00000E+00   0.00000E+00   0.00000E+00   0.00000E+00   0.00000E+00   0.00000E+00   0.00000E+00   0.00000E+00   0.00000E+00
     7     13    103   1.92391E+00   0.00000E+00   0.00000E+00   7.50000E-01   0.00000E+00   0.00000E+00   7.50000E-01   0.00000E+00   0.00000E+00   0.00000E+00   0.00000E+00             T             F   0.00000E+00   0.00000E+00   0.00000E+00   0.00000E+00   0.00000E+00   0.00000E+00   0.00000E+00   0.00000E+00   0.00000E+00   0.00000E+00   0.00000E+00   0.00000E+00   0.00000E+00   0.00000E+00   0.00000E+00   0.00000E+00   0.00000E+00   0.00000E+00   0.00000E+00
     8     15    125   1.92391E+00   0.00000E+00   0.00000E+00   7.50000E-01   0.00000E+00   0.00000E+00   7.50000E-01   0.00000E+00   0.00000E+00   0.00000E+00   0.00000E+00             T             F   0.00000E+00   0.00000E+00   0.00000E+00   0.00000E+00   0.00000E+00   0.00000E+00   0.00000E+00   0.00000E+00   0.00000E+00   0.00000E+00   0.00000E+00   0.00000E+00   0.00000E+00   0.00000E+00   0.00000E+00   0.00000E+00   0.00000E+00   0.00000E+00   0.00000E+00
     9     18     17   1.00002E-02   0.00000E+00   0.00000E+00   5.25000E+00   0.00000E+00   0.00000E+00   5.25000E+00   0.00000E+00   0.00000E+00   0.00000E+00   0.00000E+00             T             F   0.00000E+00   0.00000E+00   0.00000E+00   0.00000E+00   0.00000E+00   0.00000E+00   0.00000E+00   0.00000E+00   0.00000E+00   0.00000E+00   0.00000E+00   0.00000E+00   0.00000E+00   0.00000E+00   0.00000E+00   0.00000E+00   0.00000E+00   0.00000E+00   0.00000E+00
    10    159    147   1.91675E+00   0.00000E+00   0.00000E+00   5.25000E+00   0.00000E+00   0.00000E+00   5.25000E+00   0.00000E+00   0.00000E+00   0.00000E+00   0.00000E+00             T             F   0.00000E+00   0.00000E+00   0.00000E+00   0.00000E+00   0.00000E+00   0.00000E+00   0.00000E+00   0.00000E+00   0.00000E+00   0.00000E+00   0.00000E+00   0.00000E+00   0.00000E+00   0.00000E+00   0.00000E+00   0.00000E+00   0.00000E+00   0.00000E+00   0.00000E+00
    11    160    150   1.91675E+00   0.00000E+00   0.00000E+00   5.25000E+00   0.00000E+00   0.00000E+00   5.25000E+00   0.00000E+00   0.00000E+00   0.00000E+00   0.00000E+00             T             F   0.00000E+00   0.00000E+00   0.00000E+00   0.00000E+00   0.00000E+00   0.00000E+00   0.00000E+00   0.00000E+00   0.00000E+00   0.00000E+00   0.00000E+00   0.00000E+00   0.00000E+00   0.00000E+00   0.00000E+00   0.00000E+00   0.00000E+00   0.00000E+00   0.00000E+00
    12    161    153   1.91675E+00   0.00000E+00   0.00000E+00   5.25000E+00   0.00000E+00   0.00000E+00   5.25000E+00   0.00000E+00   0.00000E+00   0.00000E+00   0.00000E+00             T             F   0.00000E+00   0.00000E+00   0.00000E+00   0.00000E+00   0.00000E+00   0.00000E+00   0.00000E+00   0.00000E+00   0.00000E+00   0.00000E+00   0.00000E+00   0.00000E+00   0.00000E+00   0.00000E+00   0.00000E+00   0.00000E+00   0.00000E+00   0.00000E+00   0.00000E+00
    13    162    156   1.91675E+00   0.00000E+00   0.00000E+00   5.25000E+00   0.00000E+00   0.00000E+00   5.25000E+00   0.00000E+00   0.00000E+00   0.00000E+00   0.00000E+00             T             F   0.00000E+00   0.00000E+00   0.00000E+00   0.00000E+00   0.00000E+00   0.00000E+00   0.00000E+00   0.00000E+00   0.00000E+00   0.00000E+00   0.00000E+00   0.00000E+00   0.00000E+00   0.00000E+00   0.00000E+00   0.00000E+00   0.00000E+00   0.00000E+00   0.00000E+00
    14     23     24   1.83330E+00   0.00000E+00   0.00000E+00   5.25000E+00   0.00000E+00   0.00000E+00   5.25000E+00   0.00000E+00   0.00000E+00   0.00000E+00   0.00000E+00             T             F   0.00000E+00   0.00000E+00   0.00000E+00   0.00000E+00   0.00000E+00   0.00000E+00   0.00000E+00   0.00000E+00   0.00000E+00   0.00000E+00   0.00000E+00   0.00000E+00   0.00000E+00   0.00000E+00   0.00000E+00   0.00000E+00   0.00000E+00   0.00000E+00   0.00000E+00
    15     24     25   1.83330E+00   0.00000E+00   0.00000E+00   5.25000E+00   0.00000E+00   0.00000E+00   5.25000E+00   0.00000E+00   0.00000E+00   0.00000E+00   0.00000E+00             T             F   0.00000E+00   0.00000E+00   0.00000E+00   0.00000E+00   0.00000E+00   0.00000E+00   0.00000E+00   0.00000E+00   0.00000E+00   0.00000E+00   0.00000E+00   0.00000E+00   0.00000E+00   0.00000E+00   0.00000E+00   0.00000E+00   0.00000E+00   0.00000E+00   0.00000E+00
    16     25     26   1.83330E+00   0.00000E+00   0.00000E+00   5.25000E+00   0.00000E+00   0.00000E+00   5.25000E+00   0.00000E+00   0.00000E+00   0.00000E+00   0.00000E+00             T             F   0.00000E+00   0.00000E+00   0.00000E+00   0.00000E+00   0.00000E+00   0.00000E+00   0.00000E+00   0.00000E+00   0.00000E+00   0.00000E+00   0.00000E+00   0.00000E+00   0.00000E+00   0.00000E+00   0.00000E+00   0.00000E+00   0.00000E+00   0.00000E+00   0.00000E+00
    17     26     27   1.83330E+00   0.00000E+00   0.00000E+00   5.25000E+00   0.00000E+00   0.00000E+00   5.25000E+00   0.00000E+00   0.00000E+00   0.00000E+00   0.00000E+00             T             F   0.00000E+00   0.00000E+00   0.00000E+00   0.00000E+00   0.00000E+00   0.00000E+00   0.00000E+00   0.00000E+00   0.00000E+00   0.00000E+00   0.00000E+00   0.00000E+00   0.00000E+00   0.00000E+00   0.00000E+00   0.00000E+00   0.00000E+00   0.00000E+00   0.00000E+00
    18     27     28   1.83330E+00   0.00000E+00   0.00000E+00   5.25000E+00   0.00000E+00   0.00000E+00   5.25000E+00   0.00000E+00   0.00000E+00   0.00000E+00   0.00000E+00             T             F   0.00000E+00   0.00000E+00   0.00000E+00   0.00000E+00   0.00000E+00   0.00000E+00   0.00000E+00   0.00000E+00   0.00000E+00   0.00000E+00   0.00000E+00   0.00000E+00   0.00000E+00   0.00000E+00   0.00000E+00   0.00000E+00   0.00000E+00   0.00000E+00   0.00000E+00
    19     28     29   1.83330E+00   0.00000E+00   0.00000E+00   5.25000E+00   0.00000E+00   0.00000E+00   5.25000E+00   0.00000E+00   0.00000E+00   0.00000E+00   0.00000E+00             T             F   0.00000E+00   0.00000E+00   0.00000E+00   0.00000E+00   0.00000E+00   0.00000E+00   0.00000E+00   0.00000E+00   0.00000E+00   0.00000E+00   0.00000E+00   0.00000E+00   0.00000E+00   0.00000E+00   0.00000E+00   0.00000E+00   0.00000E+00   0.00000E+00   0.00000E+00
    20     29     30   1.83330E+00   0.00000E+00   0.00000E+00   5.25000E+00   0.00000E+00   0.00000E+00   5.25000E+00   0.00000E+00   0.00000E+00   0.00000E+00   0.00000E+00             T             F   0.00000E+00   0.00000E+00   0.00000E+00   0.00000E+00   0.00000E+00   0.00000E+00   0.00000E+00   0.00000E+00   0.00000E+00   0.00000E+00   0.00000E+00   0.00000E+00   0.00000E+00   0.00000E+00   0.00000E+00   0.00000E+00   0.00000E+00   0.00000E+00   0.00000E+00
    21     30     31   1.83330E+00   0.00000E+00   0.00000E+00   5.25000E+00   0.00000E+00   0.00000E+00   5.25000E+00   0.00000E+00   0.00000E+00   0.00000E+00   0.00000E+00             T             F   0.00000E+00   0.00000E+00   0.00000E+00   0.00000E+00   0.00000E+00   0.00000E+00   0.00000E+00   0.00000E+00   0.00000E+00   0.00000E+00   0.00000E+00   0.00000E+00   0.00000E+00   0.00000E+00   0.00000E+00   0.00000E+00   0.00000E+00   0.00000E+00   0.00000E+00
    22     31     19   1.83330E+00   0.00000E+00   0.00000E+00   5.25000E+00   0.00000E+00   0.00000E+00   5.25000E+00   0.00000E+00   0.00000E+00   0.00000E+00   0.00000E+00             T             F   0.00000E+00   0.00000E+00   0.00000E+00   0.00000E+00   0.00000E+00   0.00000E+00   0.00000E+00   0.00000E+00   0.00000E+00   0.00000E+00   0.00000E+00   0.00000E+00   0.00000E+00   0.00000E+00   0.00000E+00   0.00000E+00   0.00000E+00   0.00000E+00   0.00000E+00
    23     32     33   1.83330E+00   0.00000E+00   0.00000E+00   5.25000E+00   0.00000E+00   0.00000E+00   5.25000E+00   0.00000E+00   0.00000E+00   0.00000E+00   0.00000E+00             T             F   0.00000E+00   0.00000E+00   0.00000E+00   0.00000E+00   0.00000E+00   0.00000E+00   0.00000E+00   0.00000E+00   0.00000E+00   0.00000E+00   0.00000E+00   0.00000E+00   0.00000E+00   0.00000E+00   0.00000E+00   0.00000E+00   0.00000E+00   0.00000E+00   0.00000E+00
    24     33     34   1.83330E+00   0.00000E+00   0.00000E+00   5.25000E+00   0.00000E+00   0.00000E+00   5.25000E+00   0.00000E+00   0.00000E+00   0.00000E+00   0.00000E+00             T             F   0.00000E+00   0.00000E+00   0.00000E+00   0.00000E+00   0.00000E+00   0.00000E+00   0.00000E+00   0.00000E+00   0.00000E+00   0.00000E+00   0.00000E+00   0.00000E+00   0.00000E+00   0.00000E+00   0.00000E+00   0.00000E+00   0.00000E+00   0.00000E+00   0.00000E+00
    25     34     35   1.83330E+00   0.00000E+00   0.00000E+00   5.25000E+00   0.00000E+00   0.00000E+00   5.25000E+00   0.00000E+00   0.00000E+00   0.00000E+00   0.00000E+00             T             F   0.00000E+00   0.00000E+00   0.00000E+00   0.00000E+00   0.00000E+00   0.00000E+00   0.00000E+00   0.00000E+00   0.00000E+00   0.00000E+00   0.00000E+00   0.00000E+00   0.00000E+00   0.00000E+00   0.00000E+00   0.00000E+00   0.00000E+00   0.00000E+00   0.00000E+00
    26     35     36   1.83330E+00   0.00000E+00   0.00000E+00   5.25000E+00   0.00000E+00   0.00000E+00   5.25000E+00   0.00000E+00   0.00000E+00   0.00000E+00   0.00000E+00             T             F   0.00000E+00   0.00000E+00   0.00000E+00   0.00000E+00   0.00000E+00   0.00000E+00   0.00000E+00   0.00000E+00   0.00000E+00   0.00000E+00   0.00000E+00   0.00000E+00   0.00000E+00   0.00000E+00   0.00000E+00   0.00000E+00   0.00000E+00   0.00000E+00   0.00000E+00
    27     36     37   1.83330E+00   0.00000E+00   0.00000E+00   5.25000E+00   0.00000E+00   0.00000E+00   5.25000E+00   0.00000E+00   0.00000E+00   0.00000E+00   0.00000E+00             T             F   0.00000E+00   0.00000E+00   0.00000E+00   0.00000E+00   0.00000E+00   0.00000E+00   0.00000E+00   0.00000E+00   0.00000E+00   0.00000E+00   0.00000E+00   0.00000E+00   0.00000E+00   0.00000E+00   0.00000E+00   0.00000E+00   0.00000E+00   0.00000E+00   0.00000E+00
    28     37     38   1.83330E+00   0.00000E+00   0.00000E+00   5.25000E+00   0.00000E+00   0.00000E+00   5.25000E+00   0.00000E+00   0.00000E+00   0.00000E+00   0.00000E+00             T             F   0.00000E+00   0.00000E+00   0.00000E+00   0.00000E+00   0.00000E+00   0.00000E+00   0.00000E+00   0.00000E+00   0.00000E+00   0.00000E+00   0.00000E+00   0.00000E+00   0.00000E+00   0.00000E+00   0.00000E+00   0.00000E+00   0.00000E+00   0.00000E+00   0.00000E+00
    29     38     39   1.83330E+00   0.00000E+00   0.00000E+00   5.25000E+00   0.00000E+00   0.00000E+00   5.25000E+00   0.00000E+00   0.00000E+00   0.00000E+00   0.00000E+00             T             F   0.00000E+00   0.00000E+00   0.00000E+00   0.00000E+00   0.00000E+00   0.00000E+00   0.00000E+00   0.00000E+00   0.00000E+00   0.00000E+00   0.00000E+00   0.00000E+00   0.00000E+00   0.00000E+00   0.00000E+00   0.00000E+00   0.00000E+00   0.00000E+00   0.00000E+00
    30     39     40   1.83330E+00   0.00000E+00   0.00000E+00   5.25000E+00   0.00000E+00   0.00000E+00   5.25000E+00   0.00000E+00   0.00000E+00   0.00000E+00   0.00000E+00             T             F   0.00000E+00   0.00000E+00   0.00000E+00   0.00000E+00   0.00000E+00   0.00000E+00   0.00000E+00   0.00000E+00   0.00000E+00   0.00000E+00   0.00000E+00   0.00000E+00   0.00000E+00   0.00000E+00   0.00000E+00   0.00000E+00   0.00000E+00   0.00000E+00   0.00000E+00
    31     40     20   1.83330E+00   0.00000E+00   0.00000E+00   5.25000E+00   0.00000E+00   0.00000E+00   5.25000E+00   0.00000E+00   0.00000E+00   0.00000E+00   0.00000E+00             T             F   0.00000E+00   0.00000E+00   0.00000E+00   0.00000E+00   0.00000E+00   0.00000E+00   0.00000E+00   0.00000E+00   0.00000E+00   0.00000E+00   0.00000E+00   0.00000E+00   0.00000E+00   0.00000E+00   0.00000E+00   0.00000E+00   0.00000E+00   0.00000E+00   0.00000E+00
    32     41     42   1.83330E+00   0.00000E+00   0.00000E+00   5.25000E+00   0.00000E+00   0.00000E+00   5.25000E+00   0.00000E+00   0.00000E+00   0.00000E+00   0.00000E+00             T             F   0.00000E+00   0.00000E+00   0.00000E+00   0.00000E+00   0.00000E+00   0.00000E+00   0.00000E+00   0.00000E+00   0.00000E+00   0.00000E+00   0.00000E+00   0.00000E+00   0.00000E+00   0.00000E+00   0.00000E+00   0.00000E+00   0.00000E+00   0.00000E+00   0.00000E+00
    33     42     43   1.83330E+00   0.00000E+00   0.00000E+00   5.25000E+00   0.00000E+00   0.00000E+00   5.25000E+00   0.00000E+00   0.00000E+00   0.00000E+00   0.00000E+00             T             F   0.00000E+00   0.00000E+00   0.00000E+00   0.00000E+00   0.00000E+00   0.00000E+00   0.00000E+00   0.00000E+00   0.00000E+00   0.00000E+00   0.00000E+00   0.00000E+00   0.00000E+00   0.00000E+00   0.00000E+00   0.00000E+00   0.00000E+00   0.00000E+00   0.00000E+00
    34     43     44   1.83330E+00   0.00000E+00   0.00000E+00   5.25000E+00   0.00000E+00   0.00000E+00   5.25000E+00   0.00000E+00   0.00000E+00   0.00000E+00   0.00000E+00             T             F   0.00000E+00   0.00000E+00   0.00000E+00   0.00000E+00   0.00000E+00   0.00000E+00   0.00000E+00   0.00000E+00   0.00000E+00   0.00000E+00   0.00000E+00   0.00000E+00   0.00000E+00   0.00000E+00   0.00000E+00   0.00000E+00   0.00000E+00   0.00000E+00   0.00000E+00
    35     44     45   1.83330E+00   0.00000E+00   0.00000E+00   5.25000E+00   0.00000E+00   0.00000E+00   5.25000E+00   0.00000E+00   0.00000E+00   0.00000E+00   0.00000E+00             T             F   0.00000E+00   0.00000E+00   0.00000E+00   0.00000E+00   0.00000E+00   0.00000E+00   0.00000E+00   0.00000E+00   0.00000E+00   0.00000E+00   0.00000E+00   0.00000E+00   0.00000E+00   0.00000E+00   0.00000E+00   0.00000E+00   0.00000E+00   0.00000E+00   0.00000E+00
    36     45     46   1.83330E+00   0.00000E+00   0.00000E+00   5.25000E+00   0.00000E+00   0.00000E+00   5.25000E+00   0.00000E+00   0.00000E+00   0.00000E+00   0.00000E+00             T             F   0.00000E+00   0.00000E+00   0.00000E+00   0.00000E+00   0.00000E+00   0.00000E+00   0.00000E+00   0.00000E+00   0.00000E+00   0.00000E+00   0.00000E+00   0.00000E+00   0.00000E+00   0.00000E+00   0.00000E+00   0.00000E+00   0.00000E+00   0.00000E+00   0.00000E+00
    37     46     47   1.83330E+00   0.00000E+00   0.00000E+00   5.25000E+00   0.00000E+00   0.00000E+00   5.25000E+00   0.00000E+00   0.00000E+00   0.00000E+00   0.00000E+00             T             F   0.00000E+00   0.00000E+00   0.00000E+00   0.00000E+00   0.00000E+00   0.00000E+00   0.00000E+00   0.00000E+00   0.00000E+00   0.00000E+00   0.00000E+00   0.00000E+00   0.00000E+00   0.00000E+00   0.00000E+00   0.00000E+00   0.00000E+00   0.00000E+00   0.00000E+00
    38     47     48   1.83330E+00   0.00000E+00   0.00000E+00   5.25000E+00   0.00000E+00   0.00000E+00   5.25000E+00   0.00000E+00   0.00000E+00   0.00000E+00   0.00000E+00             T             F   0.00000E+00   0.00000E+00   0.00000E+00   0.00000E+00   0.00000E+00   0.00000E+00   0.00000E+00   0.00000E+00   0.00000E+00   0.00000E+00   0.00000E+00   0.00000E+00   0.00000E+00   0.00000E+00   0.00000E+00   0.00000E+00   0.00000E+00   0.00000E+00   0.00000E+00
    39     48     49   1.83330E+00   0.00000E+00   0.00000E+00   5.25000E+00   0.00000E+00   0.00000E+00   5.25000E+00   0.00000E+00   0.00000E+00   0.00000E+00   0.00000E+00             T             F   0.00000E+00   0.00000E+00   0.00000E+00   0.00000E+00   0.00000E+00   0.00000E+00   0.00000E+00   0.00000E+00   0.00000E+00   0.00000E+00   0.00000E+00   0.00000E+00   0.00000E+00   0.00000E+00   0.00000E+00   0.00000E+00   0.00000E+00   0.00000E+00   0.00000E+00
    40     49     21   1.83330E+00   0.00000E+00   0.00000E+00   5.25000E+00   0.00000E+00   0.00000E+00   5.25000E+00   0.00000E+00   0.00000E+00   0.00000E+00   0.00000E+00             T             F   0.00000E+00   0.00000E+00   0.00000E+00   0.00000E+00   0.00000E+00   0.00000E+00   0.00000E+00   0.00000E+00   0.00000E+00   0.00000E+00   0.00000E+00   0.00000E+00   0.00000E+00   0.00000E+00   0.00000E+00   0.00000E+00   0.00000E+00   0.00000E+00   0.00000E+00
    41     50     51   1.83330E+00   0.00000E+00   0.00000E+00   5.25000E+00   0.00000E+00   0.00000E+00   5.25000E+00   0.00000E+00   0.00000E+00   0.00000E+00   0.00000E+00             T             F   0.00000E+00   0.00000E+00   0.00000E+00   0.00000E+00   0.00000E+00   0.00000E+00   0.00000E+00   0.00000E+00   0.00000E+00   0.00000E+00   0.00000E+00   0.00000E+00   0.00000E+00   0.00000E+00   0.00000E+00   0.00000E+00   0.00000E+00   0.00000E+00   0.00000E+00
    42     51     52   1.83330E+00   0.00000E+00   0.00000E+00   5.25000E+00   0.00000E+00   0.00000E+00   5.25000E+00   0.00000E+00   0.00000E+00   0.00000E+00   0.00000E+00             T             F   0.00000E+00   0.00000E+00   0.00000E+00   0.00000E+00   0.00000E+00   0.00000E+00   0.00000E+00   0.00000E+00   0.00000E+00   0.00000E+00   0.00000E+00   0.00000E+00   0.00000E+00   0.00000E+00   0.00000E+00   0.00000E+00   0.00000E+00   0.00000E+00   0.00000E+00
    43     52     53   1.83330E+00   0.00000E+00   0.00000E+00   5.25000E+00   0.00000E+00   0.00000E+00   5.25000E+00   0.00000E+00   0.00000E+00   0.00000E+00   0.00000E+00             T             F   0.00000E+00   0.00000E+00   0.00000E+00   0.00000E+00   0.00000E+00   0.00000E+00   0.00000E+00   0.00000E+00   0.00000E+00   0.00000E+00   0.00000E+00   0.00000E+00   0.00000E+00   0.00000E+00   0.00000E+00   0.00000E+00   0.00000E+00   0.00000E+00   0.00000E+00
    44     53     54   1.83330E+00   0.00000E+00   0.00000E+00   5.25000E+00   0.00000E+00   0.00000E+00   5.25000E+00   0.00000E+00   0.00000E+00   0.00000E+00   0.00000E+00             T             F   0.00000E+00   0.00000E+00   0.00000E+00   0.00000E+00   0.00000E+00   0.00000E+00   0.00000E+00   0.00000E+00   0.00000E+00   0.00000E+00   0.00000E+00   0.00000E+00   0.00000E+00   0.00000E+00   0.00000E+00   0.00000E+00   0.00000E+00   0.00000E+00   0.00000E+00
    45     54     55   1.83330E+00   0.00000E+00   0.00000E+00   5.25000E+00   0.00000E+00   0.00000E+00   5.25000E+00   0.00000E+00   0.00000E+00   0.00000E+00   0.00000E+00             T             F   0.00000E+00   0.00000E+00   0.00000E+00   0.00000E+00   0.00000E+00   0.00000E+00   0.00000E+00   0.00000E+00   0.00000E+00   0.00000E+00   0.00000E+00   0.00000E+00   0.00000E+00   0.00000E+00   0.00000E+00   0.00000E+00   0.00000E+00   0.00000E+00   0.00000E+00
    46     55     56   1.83330E+00   0.00000E+00   0.00000E+00   5.25000E+00   0.00000E+00   0.00000E+00   5.25000E+00   0.00000E+00   0.00000E+00   0.00000E+00   0.00000E+00             T             F   0.00000E+00   0.00000E+00   0.00000E+00   0.00000E+00   0.00000E+00   0.00000E+00   0.00000E+00   0.00000E+00   0.00000E+00   0.00000E+00   0.00000E+00   0.00000E+00   0.00000E+00   0.00000E+00   0.00000E+00   0.00000E+00   0.00000E+00   0.00000E+00   0.00000E+00
    47     56     57   1.83330E+00   0.00000E+00   0.00000E+00   5.25000E+00   0.00000E+00   0.00000E+00   5.25000E+00   0.00000E+00   0.00000E+00   0.00000E+00   0.00000E+00             T             F   0.00000E+00   0.00000E+00   0.00000E+00   0.00000E+00   0.00000E+00   0.00000E+00   0.00000E+00   0.00000E+00   0.00000E+00   0.00000E+00   0.00000E+00   0.00000E+00   0.00000E+00   0.00000E+00   0.00000E+00   0.00000E+00   0.00000E+00   0.00000E+00   0.00000E+00
    48     57     58   1.83330E+00   0.00000E+00   0.00000E+00   5.25000E+00   0.00000E+00   0.00000E+00   5.25000E+00   0.00000E+00   0.00000E+00   0.00000E+00   0.00000E+00             T             F   0.00000E+00   0.00000E+00   0.00000E+00   0.00000E+00   0.00000E+00   0.00000E+00   0.00000E+00   0.00000E+00   0.00000E+00   0.00000E+00   0.00000E+00   0.00000E+00   0.00000E+00   0.00000E+00   0.00000E+00   0.00000E+00   0.00000E+00   0.00000E+00   0.00000E+00
    49     58     22   1.83330E+00   0.00000E+00   0.00000E+00   5.25000E+00   0.00000E+00   0.00000E+00   5.25000E+00   0.00000E+00   0.00000E+00   0.00000E+00   0.00000E+00             T             F   0.00000E+00   0.00000E+00   0.00000E+00   0.00000E+00   0.00000E+00   0.00000E+00   0.00000E+00   0.00000E+00   0.00000E+00   0.00000E+00   0.00000E+00   0.00000E+00   0.00000E+00   0.00000E+00   0.00000E+00   0.00000E+00   0.00000E+00   0.00000E+00   0.00000E+00
    50     59     60   1.92391E+00   0.00000E+00   0.00000E+00   7.50000E-01   0.00000E+00   0.00000E+00   7.50000E-01   0.00000E+00   0.00000E+00   0.00000E+00   0.00000E+00             T             F   0.00000E+00   0.00000E+00   0.00000E+00   0.00000E+00   0.00000E+00   0.00000E+00   0.00000E+00   0.00000E+00   0.00000E+00   0.00000E+00   0.00000E+00   0.00000E+00   0.00000E+00   0.00000E+00   0.00000E+00   0.00000E+00   0.00000E+00   0.00000E+00   0.00000E+00
    51     60     61   1.92391E+00   0.00000E+00   0.00000E+00   7.50000E-01   0.00000E+00   0.00000E+00   7.50000E-01   0.00000E+00   0.00000E+00   0.00000E+00   0.00000E+00             T             F   0.00000E+00   0.00000E+00   0.00000E+00   0.00000E+00   0.00000E+00   0.00000E+00   0.00000E+00   0.00000E+00   0.00000E+00   0.00000E+00   0.00000E+00   0.00000E+00   0.00000E+00   0.00000E+00   0.00000E+00   0.00000E+00   0.00000E+00   0.00000E+00   0.00000E+00
    52     61     62   1.92391E+00   0.00000E+00   0.00000E+00   7.50000E-01   0.00000E+00   0.00000E+00   7.50000E-01   0.00000E+00   0.00000E+00   0.00000E+00   0.00000E+00             T             F   0.00000E+00   0.00000E+00   0.00000E+00   0.00000E+00   0.00000E+00   0.00000E+00   0.00000E+00   0.00000E+00   0.00000E+00   0.00000E+00   0.00000E+00   0.00000E+00   0.00000E+00   0.00000E+00   0.00000E+00   0.00000E+00   0.00000E+00   0.00000E+00   0.00000E+00
[...]
       3952   0.98800E+02       1.08467E+03       0.00000E+00       0.00000E+00       0.00000E+00      -1.00538E+03       0.00000E+00       1.08426E+03       0.00000E+00       1.00518E+03       0.00000E+00       0.00000E+00      -1.66544E+02       0.00000E+00       0.00000E+00       0.00000E+00      -9.03291E+04       0.00000E+00       0.00000E+00      -9.03823E+04       0.00000E+00      -6.87866E+05
       3953   0.98825E+02       1.27856E+03       0.00000E+00       0.00000E+00       0.00000E+00      -1.37544E+03       0.00000E+00       1.27851E+03       0.00000E+00       1.37420E+03       0.00000E+00       0.00000E+00      -1.62312E+02       0.00000E+00       0.00000E+00       0.00000E+00      -9.45734E+04       0.00000E+00       0.00000E+00      -9.46787E+04       0.00000E+00      -1.46414E+05
       3954   0.98850E+02       1.46547E+03       0.00000E+00       0.00000E+00       0.00000E+00      -1.69901E+03       0.00000E+00       1.46496E+03       0.00000E+00       1.69978E+03       0.00000E+00       0.00000E+00      -1.59864E+02       0.00000E+00       0.00000E+00       0.00000E+00      -9.84310E+04       0.00000E+00       0.00000E+00      -9.84965E+04       0.00000E+00       3.88399E+05
       3955   0.98875E+02       1.65359E+03       0.00000E+00       0.00000E+00       0.00000E+00      -2.03970E+03       0.00000E+00       1.65347E+03       0.00000E+00       2.03950E+03       0.00000E+00       0.00000E+00      -1.55611E+02       0.00000E+00       0.00000E+00       0.00000E+00      -1.02631E+05       0.00000E+00       0.00000E+00      -1.02737E+05       0.00000E+00       9.22970E+05
       3956   0.98900E+02       1.83075E+03       0.00000E+00       0.00000E+00       0.00000E+00      -2.33043E+03       0.00000E+00       1.83022E+03       0.00000E+00       2.33216E+03       0.00000E+00       0.00000E+00      -1.53120E+02       0.00000E+00       0.00000E+00       0.00000E+00      -1.06430E+05       0.00000E+00       0.00000E+00      -1.06496E+05       0.00000E+00       1.44140E+06
       3957   0.98925E+02       2.00502E+03       0.00000E+00       0.00000E+00       0.00000E+00      -2.63498E+03       0.00000E+00       2.00485E+03       0.00000E+00       2.63563E+03       0.00000E+00       0.00000E+00      -1.48834E+02       0.00000E+00       0.00000E+00       0.00000E+00      -1.10577E+05       0.00000E+00       0.00000E+00      -1.10686E+05       0.00000E+00       1.95049E+06
       3958   0.98950E+02       2.16451E+03       0.00000E+00       0.00000E+00       0.00000E+00      -2.88634E+03       0.00000E+00       2.16397E+03       0.00000E+00       2.88886E+03       0.00000E+00       0.00000E+00      -1.46336E+02       0.00000E+00       0.00000E+00       0.00000E+00      -1.14328E+05       0.00000E+00       0.00000E+00      -1.14385E+05       0.00000E+00       2.43447E+06
       3959   0.98975E+02       2.31735E+03       0.00000E+00       0.00000E+00       0.00000E+00      -3.14854E+03       0.00000E+00       2.31718E+03       0.00000E+00       3.14982E+03       0.00000E+00       0.00000E+00      -1.42026E+02       0.00000E+00       0.00000E+00       0.00000E+00      -1.18398E+05       0.00000E+00       0.00000E+00      -1.18508E+05       0.00000E+00       2.90063E+06
       3960   0.99000E+02       2.45190E+03       0.00000E+00       0.00000E+00       0.00000E+00      -3.35480E+03       0.00000E+00       2.45132E+03       0.00000E+00       3.35790E+03       0.00000E+00       0.00000E+00      -1.39520E+02       0.00000E+00       0.00000E+00       0.00000E+00      -1.22077E+05       0.00000E+00       0.00000E+00      -1.22139E+05       0.00000E+00       3.33360E+06
       3961   0.99025E+02       2.57633E+03       0.00000E+00       0.00000E+00       0.00000E+00      -3.56928E+03       0.00000E+00       2.57618E+03       0.00000E+00       3.57121E+03       0.00000E+00       0.00000E+00      -1.35236E+02       0.00000E+00       0.00000E+00       0.00000E+00      -1.26079E+05       0.00000E+00       0.00000E+00      -1.26190E+05       0.00000E+00       3.74111E+06
       3962   0.99050E+02       2.67945E+03       0.00000E+00       0.00000E+00       0.00000E+00      -3.72563E+03       0.00000E+00       2.67886E+03       0.00000E+00       3.72938E+03       0.00000E+00       0.00000E+00      -1.32744E+02       0.00000E+00       0.00000E+00       0.00000E+00      -1.29683E+05       0.00000E+00       0.00000E+00      -1.29741E+05       0.00000E+00       4.10855E+06
       3963   0.99075E+02       2.76954E+03       0.00000E+00       0.00000E+00       0.00000E+00      -3.88875E+03       0.00000E+00       2.76942E+03       0.00000E+00       3.89107E+03       0.00000E+00       0.00000E+00      -1.28486E+02       0.00000E+00       0.00000E+00       0.00000E+00      -1.33602E+05       0.00000E+00       0.00000E+00      -1.33712E+05       0.00000E+00       4.44414E+06
       3964   0.99100E+02       2.83584E+03       0.00000E+00       0.00000E+00       0.00000E+00      -3.99200E+03       0.00000E+00       2.83529E+03       0.00000E+00       3.99610E+03       0.00000E+00       0.00000E+00      -1.26040E+02       0.00000E+00       0.00000E+00       0.00000E+00      -1.37122E+05       0.00000E+00       0.00000E+00      -1.37183E+05       0.00000E+00       4.73410E+06
       3965   0.99125E+02       2.88700E+03       0.00000E+00       0.00000E+00       0.00000E+00      -4.10115E+03       0.00000E+00       2.88689E+03       0.00000E+00       4.10387E+03       0.00000E+00       0.00000E+00      -1.21832E+02       0.00000E+00       0.00000E+00       0.00000E+00      -1.40949E+05       0.00000E+00       0.00000E+00      -1.41059E+05       0.00000E+00       4.98737E+06
       3966   0.99150E+02       2.91262E+03       0.00000E+00       0.00000E+00       0.00000E+00      -4.15002E+03       0.00000E+00       2.91211E+03       0.00000E+00       4.15437E+03       0.00000E+00       0.00000E+00      -1.19432E+02       0.00000E+00       0.00000E+00       0.00000E+00      -1.44364E+05       0.00000E+00       0.00000E+00      -1.44433E+05       0.00000E+00       5.19093E+06
       3967   0.99175E+02       2.92162E+03       0.00000E+00       0.00000E+00       0.00000E+00      -4.20398E+03       0.00000E+00       2.92155E+03       0.00000E+00       4.20696E+03       0.00000E+00       0.00000E+00      -1.15310E+02       0.00000E+00       0.00000E+00       0.00000E+00      -1.48100E+05       0.00000E+00       0.00000E+00      -1.48208E+05       0.00000E+00       5.35466E+06
       3968   0.99200E+02       2.90410E+03       0.00000E+00       0.00000E+00       0.00000E+00      -4.19789E+03       0.00000E+00       2.90362E+03       0.00000E+00       4.20224E+03       0.00000E+00       0.00000E+00      -1.13000E+02       0.00000E+00       0.00000E+00       0.00000E+00      -1.51413E+05       0.00000E+00       0.00000E+00      -1.51478E+05       0.00000E+00       5.46629E+06
       3969   0.99225E+02       2.86947E+03       0.00000E+00       0.00000E+00       0.00000E+00      -4.19782E+03       0.00000E+00       2.86945E+03       0.00000E+00       4.20072E+03       0.00000E+00       0.00000E+00      -1.08954E+02       0.00000E+00       0.00000E+00       0.00000E+00      -1.55028E+05       0.00000E+00       0.00000E+00      -1.55134E+05       0.00000E+00       5.53675E+06
       3970   0.99250E+02       2.80822E+03       0.00000E+00       0.00000E+00       0.00000E+00      -4.13850E+03       0.00000E+00       2.80778E+03       0.00000E+00       4.14285E+03       0.00000E+00       0.00000E+00      -1.06736E+02       0.00000E+00       0.00000E+00       0.00000E+00      -1.58216E+05       0.00000E+00       0.00000E+00      -1.58278E+05       0.00000E+00       5.55457E+06
       3971   0.99275E+02       2.73010E+03       0.00000E+00       0.00000E+00       0.00000E+00      -4.08632E+03       0.00000E+00       2.73015E+03       0.00000E+00       4.08904E+03       0.00000E+00       0.00000E+00      -1.02799E+02       0.00000E+00       0.00000E+00       0.00000E+00      -1.61712E+05       0.00000E+00       0.00000E+00      -1.61819E+05       0.00000E+00       5.53163E+06
       3972   0.99300E+02       2.62627E+03       0.00000E+00       0.00000E+00       0.00000E+00      -3.97658E+03       0.00000E+00       2.62586E+03       0.00000E+00       3.98067E+03       0.00000E+00       0.00000E+00      -1.00704E+02       0.00000E+00       0.00000E+00       0.00000E+00      -1.64774E+05       0.00000E+00       0.00000E+00      -1.64831E+05       0.00000E+00       5.45738E+06
       3973   0.99325E+02       2.50653E+03       0.00000E+00       0.00000E+00       0.00000E+00      -3.87662E+03       0.00000E+00       2.50668E+03       0.00000E+00       3.87896E+03       0.00000E+00       0.00000E+00      -9.68857E+01       0.00000E+00       0.00000E+00       0.00000E+00      -1.68124E+05       0.00000E+00       0.00000E+00      -1.68233E+05       0.00000E+00       5.34441E+06
       3974   0.99350E+02       2.36269E+03       0.00000E+00       0.00000E+00       0.00000E+00      -3.72147E+03       0.00000E+00       2.36243E+03       0.00000E+00       3.72480E+03       0.00000E+00       0.00000E+00      -9.49120E+01       0.00000E+00       0.00000E+00       0.00000E+00      -1.71037E+05       0.00000E+00       0.00000E+00      -1.71110E+05       0.00000E+00       5.18324E+06
       3975   0.99375E+02       2.20515E+03       0.00000E+00       0.00000E+00       0.00000E+00      -3.57872E+03       0.00000E+00       2.20541E+03       0.00000E+00       3.58048E+03       0.00000E+00       0.00000E+00      -9.12427E+01       0.00000E+00       0.00000E+00       0.00000E+00      -1.74242E+05       0.00000E+00       0.00000E+00      -1.74350E+05       0.00000E+00       4.98725E+06
       3976   0.99400E+02       2.02586E+03       0.00000E+00       0.00000E+00       0.00000E+00      -3.38394E+03       0.00000E+00       2.02573E+03       0.00000E+00       3.38714E+03       0.00000E+00       0.00000E+00      -8.94080E+01       0.00000E+00       0.00000E+00       0.00000E+00      -1.76996E+05       0.00000E+00       0.00000E+00      -1.77070E+05       0.00000E+00       4.74762E+06
       3977   0.99425E+02       1.83558E+03       0.00000E+00       0.00000E+00       0.00000E+00      -3.20525E+03       0.00000E+00       1.83597E+03       0.00000E+00       3.20635E+03       0.00000E+00       0.00000E+00      -8.59049E+01       0.00000E+00       0.00000E+00       0.00000E+00      -1.80034E+05       0.00000E+00       0.00000E+00      -1.80144E+05       0.00000E+00       4.47874E+06
       3978   0.99450E+02       1.62682E+03       0.00000E+00       0.00000E+00       0.00000E+00      -2.97779E+03       0.00000E+00       1.62669E+03       0.00000E+00       2.98010E+03       0.00000E+00       0.00000E+00      -8.42560E+01       0.00000E+00       0.00000E+00       0.00000E+00      -1.82616E+05       0.00000E+00       0.00000E+00      -1.82698E+05       0.00000E+00       4.17202E+06
       3979   0.99475E+02       1.41028E+03       0.00000E+00       0.00000E+00       0.00000E+00      -2.77139E+03       0.00000E+00       1.41077E+03       0.00000E+00       2.77172E+03       0.00000E+00       0.00000E+00      -8.09012E+01       0.00000E+00       0.00000E+00       0.00000E+00      -1.85474E+05       0.00000E+00       0.00000E+00      -1.85582E+05       0.00000E+00       3.84309E+06
       3980   0.99500E+02       1.17894E+03       0.00000E+00       0.00000E+00       0.00000E+00      -2.51981E+03       0.00000E+00       1.17907E+03       0.00000E+00       2.52160E+03       0.00000E+00       0.00000E+00      -7.94400E+01       0.00000E+00       0.00000E+00       0.00000E+00      -1.87867E+05       0.00000E+00       0.00000E+00      -1.87933E+05       0.00000E+00       3.48350E+06
       3981   0.99525E+02       9.44024E+02       0.00000E+00       0.00000E+00       0.00000E+00      -2.29410E+03       0.00000E+00       9.44646E+02       0.00000E+00       2.29368E+03       0.00000E+00       0.00000E+00      -7.62569E+01       0.00000E+00       0.00000E+00       0.00000E+00      -1.90532E+05       0.00000E+00       0.00000E+00      -1.90642E+05       0.00000E+00       3.10930E+06
       3982   0.99550E+02       6.98560E+02       0.00000E+00       0.00000E+00       0.00000E+00      -2.02778E+03       0.00000E+00       6.98624E+02       0.00000E+00       2.02931E+03       0.00000E+00       0.00000E+00      -7.49600E+01       0.00000E+00       0.00000E+00       0.00000E+00      -1.92717E+05       0.00000E+00       0.00000E+00      -1.92791E+05       0.00000E+00       2.71280E+06
       3983   0.99575E+02       4.53408E+02       0.00000E+00       0.00000E+00       0.00000E+00      -1.79157E+03       0.00000E+00       4.54142E+02       0.00000E+00       1.79033E+03       0.00000E+00       0.00000E+00      -7.20027E+01       0.00000E+00       0.00000E+00       0.00000E+00      -1.95179E+05       0.00000E+00       0.00000E+00      -1.95293E+05       0.00000E+00       2.30995E+06
       3984   0.99600E+02       2.02368E+02       0.00000E+00       0.00000E+00       0.00000E+00      -1.51987E+03       0.00000E+00       2.02624E+02       0.00000E+00       1.52064E+03       0.00000E+00       0.00000E+00      -7.08960E+01       0.00000E+00       0.00000E+00       0.00000E+00      -1.97149E+05       0.00000E+00       0.00000E+00      -1.97214E+05       0.00000E+00       1.89360E+06
       3985   0.99625E+02      -4.37925E+01       0.00000E+00       0.00000E+00       0.00000E+00      -1.28270E+03       0.00000E+00      -4.29465E+01       0.00000E+00       1.28081E+03       0.00000E+00       0.00000E+00      -6.81584E+01       0.00000E+00       0.00000E+00       0.00000E+00      -1.99391E+05       0.00000E+00       0.00000E+00      -1.99503E+05       0.00000E+00       1.47983E+06
       3986   0.99650E+02      -2.91072E+02       0.00000E+00       0.00000E+00       0.00000E+00      -1.01530E+03       0.00000E+00      -2.90944E+02       0.00000E+00       1.01478E+03       0.00000E+00       0.00000E+00      -6.72960E+01       0.00000E+00       0.00000E+00       0.00000E+00      -2.01146E+05       0.00000E+00       0.00000E+00      -2.01204E+05       0.00000E+00       1.06142E+06
       3987   0.99675E+02      -5.29457E+02       0.00000E+00       0.00000E+00       0.00000E+00      -7.86432E+02       0.00000E+00      -5.28475E+02       0.00000E+00       7.83884E+02       0.00000E+00       0.00000E+00      -6.47477E+01       0.00000E+00       0.00000E+00       0.00000E+00      -2.03140E+05       0.00000E+00       0.00000E+00      -2.03253E+05       0.00000E+00       6.54576E+05
       3988   0.99700E+02      -7.64288E+02       0.00000E+00       0.00000E+00       0.00000E+00      -5.31968E+02       0.00000E+00      -7.63904E+02       0.00000E+00       5.31200E+02       0.00000E+00       0.00000E+00      -6.40960E+01       0.00000E+00       0.00000E+00       0.00000E+00      -2.04653E+05       0.00000E+00       0.00000E+00      -2.04718E+05       0.00000E+00       2.51920E+05
       3989   0.99725E+02      -9.85561E+02       0.00000E+00       0.00000E+00       0.00000E+00      -3.21360E+02       0.00000E+00      -9.84483E+02       0.00000E+00       3.18140E+02       0.00000E+00       0.00000E+00      -6.17886E+01       0.00000E+00       0.00000E+00       0.00000E+00      -2.06402E+05       0.00000E+00       0.00000E+00      -2.06516E+05       0.00000E+00      -1.30710E+05
       3990   0.99750E+02      -1.19923E+03       0.00000E+00       0.00000E+00       0.00000E+00      -8.85760E+01       0.00000E+00      -1.19898E+03       0.00000E+00       8.72960E+01       0.00000E+00       0.00000E+00      -6.13600E+01       0.00000E+00       0.00000E+00       0.00000E+00      -2.07651E+05       0.00000E+00       0.00000E+00      -2.07725E+05       0.00000E+00      -5.00826E+05
       3991   0.99775E+02      -1.39520E+03       0.00000E+00       0.00000E+00       0.00000E+00       9.54805E+01       0.00000E+00      -1.39405E+03       0.00000E+00      -9.93400E+01       0.00000E+00       0.00000E+00      -5.92982E+01       0.00000E+00       0.00000E+00       0.00000E+00      -2.09156E+05       0.00000E+00       0.00000E+00      -2.09269E+05       0.00000E+00      -8.42873E+05
       3992   0.99800E+02      -1.57978E+03       0.00000E+00       0.00000E+00       0.00000E+00       2.98240E+02       0.00000E+00      -1.57939E+03       0.00000E+00      -3.00288E+02       0.00000E+00       0.00000E+00      -5.91200E+01       0.00000E+00       0.00000E+00       0.00000E+00      -2.10149E+05       0.00000E+00       0.00000E+00      -2.10215E+05       0.00000E+00      -1.16484E+06
       3993   0.99825E+02      -1.74309E+03       0.00000E+00       0.00000E+00       0.00000E+00       4.48881E+02       0.00000E+00      -1.74186E+03       0.00000E+00      -4.53284E+02       0.00000E+00       0.00000E+00      -5.72872E+01       0.00000E+00       0.00000E+00       0.00000E+00      -2.11382E+05       0.00000E+00       0.00000E+00      -2.11497E+05       0.00000E+00      -1.45196E+06
       3994   0.99850E+02      -1.89171E+03       0.00000E+00       0.00000E+00       0.00000E+00       6.14656E+02       0.00000E+00      -1.89120E+03       0.00000E+00      -6.17216E+02       0.00000E+00       0.00000E+00      -5.73440E+01       0.00000E+00       0.00000E+00       0.00000E+00      -2.12115E+05       0.00000E+00       0.00000E+00      -2.12189E+05       0.00000E+00      -1.71259E+06
       3995   0.99875E+02      -2.01613E+03       0.00000E+00       0.00000E+00       0.00000E+00       7.25881E+02       0.00000E+00      -2.01484E+03       0.00000E+00      -7.30676E+02       0.00000E+00       0.00000E+00      -5.57698E+01       0.00000E+00       0.00000E+00       0.00000E+00      -2.13066E+05       0.00000E+00       0.00000E+00      -2.13179E+05       0.00000E+00      -1.93246E+06
       3996   0.99900E+02      -2.12326E+03       0.00000E+00       0.00000E+00       0.00000E+00       8.49664E+02       0.00000E+00      -2.12262E+03       0.00000E+00      -8.52224E+02       0.00000E+00       0.00000E+00      -5.60800E+01       0.00000E+00       0.00000E+00       0.00000E+00      -2.13516E+05       0.00000E+00       0.00000E+00      -2.13590E+05       0.00000E+00      -2.12088E+06
       3997   0.99925E+02      -2.20410E+03       0.00000E+00       0.00000E+00       0.00000E+00       9.16373E+02       0.00000E+00      -2.20278E+03       0.00000E+00      -9.21456E+02       0.00000E+00       0.00000E+00      -5.47549E+01       0.00000E+00       0.00000E+00       0.00000E+00      -2.14196E+05       0.00000E+00       0.00000E+00      -2.14310E+05       0.00000E+00      -2.26437E+06
       3998   0.99950E+02      -2.26586E+03       0.00000E+00       0.00000E+00       0.00000E+00       9.94048E+02       0.00000E+00      -2.26522E+03       0.00000E+00      -9.97120E+02       0.00000E+00       0.00000E+00      -5.52960E+01       0.00000E+00       0.00000E+00       0.00000E+00      -2.14360E+05       0.00000E+00       0.00000E+00      -2.14426E+05       0.00000E+00      -2.37293E+06
       3999   0.99975E+02      -2.29989E+03       0.00000E+00       0.00000E+00       0.00000E+00       1.01335E+03       0.00000E+00      -2.29855E+03       0.00000E+00      -1.01860E+03       0.00000E+00       0.00000E+00      -5.42468E+01       0.00000E+00       0.00000E+00       0.00000E+00      -2.14763E+05       0.00000E+00       0.00000E+00      -2.14876E+05       0.00000E+00      -2.43385E+06
       4000   0.10000E+03      -2.31398E+03       0.00000E+00       0.00000E+00       0.00000E+00       1.04294E+03       0.00000E+00      -2.31334E+03       0.00000E+00      -1.04576E+03       0.00000E+00       0.00000E+00      -5.50560E+01       0.00000E+00       0.00000E+00       0.00000E+00      -2.14647E+05       0.00000E+00       0.00000E+00      -2.14721E+05       0.00000E+00      -2.45826E+06

This summary file was closed on 21-Mar-2018 at 19:27:27.

