
This summary information was generated by ElastoDyn (v1.04.00a-bjj, 26-Jul-2016) on 21-Mar-2018 at 21:58:19.


Turbine features:

            Upwind, three-bladed rotor with rigid hub.
            The model has 21 of 24 DOFs active (enabled) at start-up.
 Enabled    Platform horizontal surge translation DOF 
 Enabled    Platform horizontal sway translation DOF 
 Enabled    Platform vertical heave translation DOF 
 Enabled    Platform roll tilt rotation DOF 
 Enabled    Platform pitch tilt rotation DOF 
 Enabled    Platform yaw rotation DOF 
 Enabled    1st tower fore-aft bending mode DOF 
 Enabled    1st tower side-to-side bending mode DOF 
 Enabled    2nd tower fore-aft bending mode DOF 
 Enabled    2nd tower side-to-side bending mode DOF 
 Disabled   Nacelle yaw DOF 
 Disabled   Rotor-furl DOF 
 Enabled    Variable speed generator DOF 
 Enabled    Drivetrain rotational-flexibility DOF 
 Disabled   Tail-furl DOF 
 Enabled    1st flapwise bending-mode DOF of blade 1 
 Enabled    1st edgewise bending-mode DOF of blade 1 
 Enabled    2nd flapwise bending-mode DOF of blade 1 
 Enabled    1st flapwise bending-mode DOF of blade 2 
 Enabled    1st edgewise bending-mode DOF of blade 2 
 Enabled    2nd flapwise bending-mode DOF of blade 2 
 Enabled    1st flapwise bending-mode DOF of blade 3 
 Enabled    1st edgewise bending-mode DOF of blade 3 
 Enabled    2nd flapwise bending-mode DOF of blade 3 


Time steps:

    Structural            (s)        0.00250000


Some calculated parameters:

    Hub-Height            (m)           118.036
    Flexible Tower Length (m)           107.000
    Flexible Blade Length (m)            86.400


Rotor mass properties:

    Rotor Mass            (kg)       230598.578
    Rotor Inertia         (kg-m^2)156243136.000
                                        Blade 1      Blade 2      Blade 3
                                        -------      -------      -------
    Mass                  (kg)        41692.855    41692.855    41692.855
    Second Mass Moment    (kg-m^2) 45639992.000 45639992.000 45639992.000
    First Mass Moment     (kg-m)    1090124.250  1090124.250  1090124.250
    Center of Mass        (m)            26.147       26.147       26.147


Additional mass properties:

    Tower-top Mass        (kg)       676604.812
    Tower Mass            (kg)       879381.688
    Platform Mass         (kg)      7540549.000
    Mass Incl. Platform   (kg)      9096536.000


Interpolated tower properties:

Node  TwFract   HNodes  DHNodes  TMassDen    FAStiff    SSStiff
 (-)      (-)      (m)      (m)    (kg/m)     (Nm^2)     (Nm^2)
   1    0.006    0.677    1.354 11111.413  3.733E+12  3.733E+12
   2    0.019    2.032    1.354 11043.977  3.667E+12  3.667E+12
   3    0.032    3.386    1.354 10976.541  3.600E+12  3.600E+12
   4    0.044    4.741    1.354 10909.104  3.534E+12  3.534E+12
   5    0.057    6.095    1.354 10841.669  3.468E+12  3.468E+12
   6    0.070    7.449    1.354 10720.439  3.386E+12  3.386E+12
   7    0.082    8.804    1.354 10653.341  3.324E+12  3.324E+12
   8    0.095   10.158    1.354 10586.243  3.263E+12  3.263E+12
   9    0.108   11.513    1.354 10519.145  3.201E+12  3.201E+12
  10    0.120   12.867    1.354 10452.047  3.139E+12  3.139E+12
  11    0.133   14.222    1.354 10384.948  3.078E+12  3.078E+12
  12    0.146   15.576    1.354 10266.083  3.005E+12  3.005E+12
  13    0.158   16.930    1.354 10199.323  2.947E+12  2.947E+12
  14    0.171   18.285    1.354 10132.562  2.890E+12  2.890E+12
  15    0.184   19.639    1.354 10065.803  2.833E+12  2.833E+12
  16    0.196   20.994    1.354  9999.043  2.775E+12  2.775E+12
  17    0.209   22.348    1.354  9882.202  2.707E+12  2.707E+12
  18    0.222   23.703    1.354  9815.780  2.654E+12  2.654E+12
  19    0.234   25.057    1.354  9749.358  2.601E+12  2.601E+12
  20    0.247   26.411    1.354  9682.936  2.548E+12  2.548E+12
  21    0.259   27.766    1.354  9616.514  2.495E+12  2.495E+12
  22    0.272   29.120    1.354  9501.700  2.431E+12  2.431E+12
  23    0.285   30.475    1.354  9435.616  2.382E+12  2.382E+12
  24    0.297   31.829    1.354  9369.532  2.332E+12  2.332E+12
  25    0.310   33.184    1.354  9303.448  2.283E+12  2.283E+12
  26    0.323   34.538    1.354  9237.363  2.234E+12  2.234E+12
  27    0.335   35.892    1.354  9124.576  2.174E+12  2.174E+12
  28    0.348   37.247    1.354  9058.830  2.129E+12  2.129E+12
  29    0.361   38.601    1.354  8993.084  2.084E+12  2.084E+12
  30    0.373   39.956    1.354  8927.338  2.038E+12  2.038E+12
  31    0.386   41.310    1.354  8861.592  1.993E+12  1.993E+12
  32    0.399   42.665    1.354  8795.846  1.948E+12  1.948E+12
  33    0.411   44.019    1.354  8685.422  1.896E+12  1.896E+12
  34    0.424   45.373    1.354  8620.014  1.854E+12  1.854E+12
  35    0.437   46.728    1.354  8554.605  1.812E+12  1.812E+12
  36    0.449   48.082    1.354  8489.198  1.771E+12  1.771E+12
  37    0.462   49.437    1.354  8423.790  1.729E+12  1.729E+12
  38    0.475   50.791    1.354  8315.392  1.681E+12  1.681E+12
  39    0.487   52.146    1.354  8250.322  1.643E+12  1.643E+12
  40    0.500   53.500    1.354  8185.252  1.604E+12  1.604E+12
  41    0.513   54.854    1.354  8120.182  1.566E+12  1.566E+12
  42    0.525   56.209    1.354  8055.112  1.528E+12  1.528E+12
  43    0.538   57.563    1.354  7948.740  1.483E+12  1.483E+12
  44    0.551   58.918    1.354  7884.008  1.448E+12  1.448E+12
  45    0.563   60.272    1.354  7819.276  1.413E+12  1.413E+12
  46    0.576   61.627    1.354  7754.544  1.379E+12  1.379E+12
  47    0.589   62.981    1.354  7689.812  1.344E+12  1.344E+12
  48    0.601   64.335    1.354  7585.466  1.302E+12  1.302E+12
  49    0.614   65.690    1.354  7521.072  1.271E+12  1.271E+12
  50    0.627   67.044    1.354  7456.679  1.239E+12  1.239E+12
  51    0.639   68.399    1.354  7392.285  1.207E+12  1.207E+12
  52    0.652   69.753    1.354  7327.891  1.175E+12  1.175E+12
  53    0.665   71.108    1.354  7263.497  1.144E+12  1.144E+12
  54    0.677   72.462    1.354  7161.515  1.108E+12  1.108E+12
  55    0.690   73.816    1.354  7097.459  1.080E+12  1.080E+12
  56    0.703   75.171    1.354  7033.403  1.051E+12  1.051E+12
  57    0.715   76.525    1.354  6969.347  1.022E+12  1.022E+12
  58    0.728   77.880    1.354  6905.292  9.933E+11  9.933E+11
  59    0.741   79.234    1.354  6805.335  9.610E+11  9.610E+11
  60    0.753   80.589    1.354  6741.618  9.351E+11  9.351E+11
  61    0.766   81.943    1.354  6677.900  9.091E+11  9.091E+11
  62    0.778   83.298    1.354  6614.182  8.832E+11  8.832E+11
  63    0.791   84.652    1.354  6550.464  8.572E+11  8.572E+11
  64    0.804   86.006    1.354  6452.534  8.277E+11  8.277E+11
  65    0.816   87.361    1.354  6389.154  8.044E+11  8.044E+11
  66    0.829   88.715    1.354  6325.775  7.811E+11  7.811E+11
  67    0.842   90.070    1.354  6262.395  7.579E+11  7.579E+11
  68    0.854   91.424    1.354  6199.015  7.346E+11  7.346E+11
  69    0.867   92.779    1.354  6103.111  7.077E+11  7.077E+11
  70    0.880   94.133    1.354  6040.069  6.869E+11  6.869E+11
  71    0.892   95.487    1.354  5977.028  6.661E+11  6.661E+11
  72    0.905   96.842    1.354  5913.986  6.453E+11  6.453E+11
  73    0.918   98.196    1.354  5850.944  6.246E+11  6.246E+11
  74    0.930   99.551    1.354  5787.902  6.038E+11  6.038E+11
  75    0.943  100.905    1.354  5694.362  5.817E+11  5.817E+11
  76    0.956  102.260    1.354  5631.659  5.633E+11  5.633E+11
  77    0.968  103.614    1.354  5568.955  5.449E+11  5.449E+11
  78    0.981  104.968    1.354  5506.251  5.264E+11  5.264E+11
  79    0.994  106.323    1.354  5443.547  5.080E+11  5.080E+11


Interpolated blade 1 properties:

Node  BlFract   RNodes  DRNodes PitchAxis  StrcTwst  BMassDen    FlpStff    EdgStff
 (-)      (-)      (m)      (m)       (-)     (deg)    (kg/m)     (Nm^2)     (Nm^2)
   1    0.023    4.800    4.000     0.000     0.000  1191.584  6.217E+10  6.112E+10
   2    0.055    7.512    1.424     0.001     0.000  1185.261  6.140E+10  5.942E+10
   3    0.073    9.119    1.790     0.004     0.005  1143.096  5.740E+10  5.561E+10
   4    0.087   10.275    0.522     0.009     6.847  1103.324  5.289E+10  5.270E+10
   5    0.103   11.658    2.244     0.020    41.079  1051.862  4.452E+10  5.095E+10
   6    0.121   13.258    0.956     0.048    36.690   983.136  3.674E+10  4.473E+10
   7    0.142   15.068    2.664     0.085    26.405   913.058  2.888E+10  3.827E+10
   8    0.165   17.075    1.350     0.132    18.396   866.194  2.228E+10  3.354E+10
   9    0.191   19.267    3.034     0.166    12.872   815.577  1.728E+10  2.995E+10
  10    0.218   21.633    1.698     0.178     9.604   749.548  1.340E+10  2.612E+10
  11    0.247   24.156    3.348     0.190     7.529   687.172  1.065E+10  2.268E+10
  12    0.278   26.823    1.986     0.205     6.333   635.941  8.553E+09  1.942E+10
  13    0.310   29.617    3.602     0.214     4.793   589.990  6.670E+09  1.846E+10
  14    0.344   32.521    2.206     0.220     4.264   566.965  5.432E+09  1.657E+10
  15    0.379   35.519    3.790     0.223     3.984   535.504  4.430E+09  1.401E+10
  16    0.414   38.591    2.354     0.224     3.511   503.075  3.587E+09  1.199E+10
  17    0.450   41.720    3.904     0.225     3.032   472.740  2.858E+09  1.016E+10
  18    0.487   44.886    2.428     0.224     2.613   439.225  2.253E+09  8.379E+09
  19    0.524   48.072    3.944     0.223     2.260   401.390  1.757E+09  6.645E+09
  20    0.561   51.257    2.426     0.223     1.890   368.977  1.375E+09  5.431E+09
  21    0.597   54.423    3.906     0.222     1.610   333.692  1.070E+09  4.234E+09
  22    0.634   57.550    2.348     0.222     1.364   302.193  8.360E+08  3.327E+09
  23    0.669   60.620    3.792     0.220     1.171   269.169  6.493E+08  2.543E+09
  24    0.704   63.615    2.198     0.220     1.006   238.847  5.039E+08  1.942E+09
  25    0.737   66.516    3.604     0.217     0.887   209.515  3.858E+08  1.487E+09
  26    0.770   69.306    1.976     0.216     0.769   182.641  2.909E+08  1.134E+09
  27    0.801   71.968    3.348     0.214     0.685   157.592  2.180E+08  8.542E+08
  28    0.830   74.487    1.690     0.213     0.638   136.352  1.633E+08  6.542E+08
  29    0.857   76.847    3.030     0.210     0.581   114.811  1.199E+08  4.962E+08
  30    0.882   79.034    1.344     0.208     0.543    96.624  8.654E+07  3.697E+08
  31    0.905   81.034    2.656     0.203     0.570    81.998  6.261E+07  2.941E+08
  32    0.926   82.837    0.950     0.202     0.553    67.324  4.317E+07  2.128E+08
  33    0.945   84.431    2.238     0.199     0.591    54.301  2.817E+07  1.543E+08
  34    0.961   85.806    0.512     0.197     0.669    43.544  1.738E+07  1.118E+08
  35    0.974   86.955    1.786     0.196     0.735    33.690  9.982E+06  7.394E+07
  36    0.985   87.870    0.044     0.196     0.788    25.515  4.698E+06  4.290E+07
  37    0.992   88.546    1.308     0.206     0.874    20.363  2.779E+06  2.736E+07


Interpolated blade 2 properties:

Node  BlFract   RNodes  DRNodes PitchAxis  StrcTwst  BMassDen    FlpStff    EdgStff
 (-)      (-)      (m)      (m)       (-)     (deg)    (kg/m)     (Nm^2)     (Nm^2)
   1    0.023    4.800    4.000     0.000     0.000  1191.584  6.217E+10  6.112E+10
   2    0.055    7.512    1.424     0.001     0.000  1185.261  6.140E+10  5.942E+10
   3    0.073    9.119    1.790     0.004     0.005  1143.096  5.740E+10  5.561E+10
   4    0.087   10.275    0.522     0.009     6.847  1103.324  5.289E+10  5.270E+10
   5    0.103   11.658    2.244     0.020    41.079  1051.862  4.452E+10  5.095E+10
   6    0.121   13.258    0.956     0.048    36.690   983.136  3.674E+10  4.473E+10
   7    0.142   15.068    2.664     0.085    26.405   913.058  2.888E+10  3.827E+10
   8    0.165   17.075    1.350     0.132    18.396   866.194  2.228E+10  3.354E+10
   9    0.191   19.267    3.034     0.166    12.872   815.577  1.728E+10  2.995E+10
  10    0.218   21.633    1.698     0.178     9.604   749.548  1.340E+10  2.612E+10
  11    0.247   24.156    3.348     0.190     7.529   687.172  1.065E+10  2.268E+10
  12    0.278   26.823    1.986     0.205     6.333   635.941  8.553E+09  1.942E+10
  13    0.310   29.617    3.602     0.214     4.793   589.990  6.670E+09  1.846E+10
  14    0.344   32.521    2.206     0.220     4.264   566.965  5.432E+09  1.657E+10
  15    0.379   35.519    3.790     0.223     3.984   535.504  4.430E+09  1.401E+10
  16    0.414   38.591    2.354     0.224     3.511   503.075  3.587E+09  1.199E+10
  17    0.450   41.720    3.904     0.225     3.032   472.740  2.858E+09  1.016E+10
  18    0.487   44.886    2.428     0.224     2.613   439.225  2.253E+09  8.379E+09
  19    0.524   48.072    3.944     0.223     2.260   401.390  1.757E+09  6.645E+09
  20    0.561   51.257    2.426     0.223     1.890   368.977  1.375E+09  5.431E+09
  21    0.597   54.423    3.906     0.222     1.610   333.692  1.070E+09  4.234E+09
  22    0.634   57.550    2.348     0.222     1.364   302.193  8.360E+08  3.327E+09
  23    0.669   60.620    3.792     0.220     1.171   269.169  6.493E+08  2.543E+09
  24    0.704   63.615    2.198     0.220     1.006   238.847  5.039E+08  1.942E+09
  25    0.737   66.516    3.604     0.217     0.887   209.515  3.858E+08  1.487E+09
  26    0.770   69.306    1.976     0.216     0.769   182.641  2.909E+08  1.134E+09
  27    0.801   71.968    3.348     0.214     0.685   157.592  2.180E+08  8.542E+08
  28    0.830   74.487    1.690     0.213     0.638   136.352  1.633E+08  6.542E+08
  29    0.857   76.847    3.030     0.210     0.581   114.811  1.199E+08  4.962E+08
  30    0.882   79.034    1.344     0.208     0.543    96.624  8.654E+07  3.697E+08
  31    0.905   81.034    2.656     0.203     0.570    81.998  6.261E+07  2.941E+08
  32    0.926   82.837    0.950     0.202     0.553    67.324  4.317E+07  2.128E+08
  33    0.945   84.431    2.238     0.199     0.591    54.301  2.817E+07  1.543E+08
  34    0.961   85.806    0.512     0.197     0.669    43.544  1.738E+07  1.118E+08
  35    0.974   86.955    1.786     0.196     0.735    33.690  9.982E+06  7.394E+07
  36    0.985   87.870    0.044     0.196     0.788    25.515  4.698E+06  4.290E+07
  37    0.992   88.546    1.308     0.206     0.874    20.363  2.779E+06  2.736E+07


Interpolated blade 3 properties:

Node  BlFract   RNodes  DRNodes PitchAxis  StrcTwst  BMassDen    FlpStff    EdgStff
 (-)      (-)      (m)      (m)       (-)     (deg)    (kg/m)     (Nm^2)     (Nm^2)
   1    0.023    4.800    4.000     0.000     0.000  1191.584  6.217E+10  6.112E+10
   2    0.055    7.512    1.424     0.001     0.000  1185.261  6.140E+10  5.942E+10
   3    0.073    9.119    1.790     0.004     0.005  1143.096  5.740E+10  5.561E+10
   4    0.087   10.275    0.522     0.009     6.847  1103.324  5.289E+10  5.270E+10
   5    0.103   11.658    2.244     0.020    41.079  1051.862  4.452E+10  5.095E+10
   6    0.121   13.258    0.956     0.048    36.690   983.136  3.674E+10  4.473E+10
   7    0.142   15.068    2.664     0.085    26.405   913.058  2.888E+10  3.827E+10
   8    0.165   17.075    1.350     0.132    18.396   866.194  2.228E+10  3.354E+10
   9    0.191   19.267    3.034     0.166    12.872   815.577  1.728E+10  2.995E+10
  10    0.218   21.633    1.698     0.178     9.604   749.548  1.340E+10  2.612E+10
  11    0.247   24.156    3.348     0.190     7.529   687.172  1.065E+10  2.268E+10
  12    0.278   26.823    1.986     0.205     6.333   635.941  8.553E+09  1.942E+10
  13    0.310   29.617    3.602     0.214     4.793   589.990  6.670E+09  1.846E+10
  14    0.344   32.521    2.206     0.220     4.264   566.965  5.432E+09  1.657E+10
  15    0.379   35.519    3.790     0.223     3.984   535.504  4.430E+09  1.401E+10
  16    0.414   38.591    2.354     0.224     3.511   503.075  3.587E+09  1.199E+10
  17    0.450   41.720    3.904     0.225     3.032   472.740  2.858E+09  1.016E+10
  18    0.487   44.886    2.428     0.224     2.613   439.225  2.253E+09  8.379E+09
  19    0.524   48.072    3.944     0.223     2.260   401.390  1.757E+09  6.645E+09
  20    0.561   51.257    2.426     0.223     1.890   368.977  1.375E+09  5.431E+09
  21    0.597   54.423    3.906     0.222     1.610   333.692  1.070E+09  4.234E+09
  22    0.634   57.550    2.348     0.222     1.364   302.193  8.360E+08  3.327E+09
  23    0.669   60.620    3.792     0.220     1.171   269.169  6.493E+08  2.543E+09
  24    0.704   63.615    2.198     0.220     1.006   238.847  5.039E+08  1.942E+09
  25    0.737   66.516    3.604     0.217     0.887   209.515  3.858E+08  1.487E+09
  26    0.770   69.306    1.976     0.216     0.769   182.641  2.909E+08  1.134E+09
  27    0.801   71.968    3.348     0.214     0.685   157.592  2.180E+08  8.542E+08
  28    0.830   74.487    1.690     0.213     0.638   136.352  1.633E+08  6.542E+08
  29    0.857   76.847    3.030     0.210     0.581   114.811  1.199E+08  4.962E+08
  30    0.882   79.034    1.344     0.208     0.543    96.624  8.654E+07  3.697E+08
  31    0.905   81.034    2.656     0.203     0.570    81.998  6.261E+07  2.941E+08
  32    0.926   82.837    0.950     0.202     0.553    67.324  4.317E+07  2.128E+08
  33    0.945   84.431    2.238     0.199     0.591    54.301  2.817E+07  1.543E+08
  34    0.961   85.806    0.512     0.197     0.669    43.544  1.738E+07  1.118E+08
  35    0.974   86.955    1.786     0.196     0.735    33.690  9.982E+06  7.394E+07
  36    0.985   87.870    0.044     0.196     0.788    25.515  4.698E+06  4.290E+07
  37    0.992   88.546    1.308     0.206     0.874    20.363  2.779E+06  2.736E+07


Requested Outputs:


  Col  Parameter  Units
  ---  ---------  -----
   0   Time       (s)       
   1   TipDxc1    (m)       
   2   TipDyc1    (m)       
   3   TipDxc2    (m)       
   4   TipDyc2    (m)       
   5   TipDxc3    (m)       
   6   TipDyc3    (m)       
   7   BldPitch1  (deg)     
   8   BldPitch2  (deg)     
   9   BldPitch3  (deg)     
  10   PtfmSurge  (m)       
  11   PtfmSway   (m)       
  12   PtfmHeave  (m)       
  13   PtfmRoll   (deg)     
  14   PtfmPitch  (deg)     
  15   PtfmYaw    (deg)     
  16   Azimuth    (deg)     
  17   RotSpeed   (rpm)     
  18   RotAccel   (deg/s^2) 
  19   LSSGagP    (deg)     
  20   LSSGagV    (rpm)     
  21   LSSGagA    (deg/s^2) 
  22   GenSpeed   (rpm)     
  23   GenAccel   (deg/s^2) 
  24   YawPos     (deg)     
  25   YawRate    (deg/s)   
  26   YawAccel   (deg/s^2) 
  27   YawBrTDxp  (m)       
  28   YawBrTDyp  (m)       
  29   YawBrTDzp  (m)       
  30   YawBrTDxt  (m)       
  31   YawBrTDyt  (m)       
  32   YawBrTDzt  (m)       
  33   YawBrTAxp  (m/s^2)   
  34   YawBrTAyp  (m/s^2)   
  35   YawBrTAzp  (m/s^2)   
  36   RootFxc1   (kN)      
  37   RootFyc1   (kN)      
  38   RootFzc1   (kN)      
  39   RootFxb1   (kN)      
  40   RootFyb1   (kN)      
  41   RootMxc1   (kN·m)    
  42   RootMyc1   (kN·m)    
  43   RootMzc1   (kN·m)    
  44   RootMxb1   (kN·m)    
  45   RootMyb1   (kN·m)    
  46   RootFxc2   (kN)      
  47   RootFyc2   (kN)      
  48   RootFzc2   (kN)      
  49   RootFxb2   (kN)      
  50   RootFyb2   (kN)      
  51   RootMxc2   (kN·m)    
  52   RootMyc2   (kN·m)    
  53   RootMzc2   (kN·m)    
  54   RootMxb2   (kN·m)    
  55   RootMyb2   (kN·m)    
  56   RootFxc3   (kN)      
  57   RootFyc3   (kN)      
  58   RootFzc3   (kN)      
  59   RootFxb3   (kN)      
  60   RootFyb3   (kN)      
  61   RootMxc3   (kN·m)    
  62   RootMyc3   (kN·m)    
  63   RootMzc3   (kN·m)    
  64   RootMxb3   (kN·m)    
  65   RootMyb3   (kN·m)    
  66   RotThrust  (kN)      
  67   LSShftFya  (kN)      
  68   LSShftFza  (kN)      
  69   LSShftFys  (kN)      
  70   LSShftFzs  (kN)      
  71   LSShftTq   (kN·m)    
  72   LSSTipMya  (kN·m)    
  73   LSSTipMza  (kN·m)    
  74   LSSTipMys  (kN·m)    
  75   LSSTipMzs  (kN·m)    
  76   LSSGagMya  (kN·m)    
  77   LSSGagMza  (kN·m)    
  78   LSSGagMys  (kN·m)    
  79   LSSGagMzs  (kN·m)    
  80   HSShftTq   (kN·m)    
  81   HSShftPwr  (kW)      
  82   HSSBrTq    (kN·m)    
  83   YawBrFxn   (kN)      
  84   YawBrFyn   (kN)      
  85   YawBrFzn   (kN)      
  86   YawBrFxp   (kN)      
  87   YawBrFyp   (kN)      
  88   YawBrMxn   (kN·m)    
  89   YawBrMyn   (kN·m)    
  90   YawBrMzn   (kN·m)    
  91   YawBrMxp   (kN·m)    
  92   YawBrMyp   (kN·m)    
  93   TwrBsFxt   (kN)      
  94   TwrBsFyt   (kN)      
  95   TwrBsFzt   (kN)      
  96   TwrBsMxt   (kN·m)    
  97   TwrBsMyt   (kN·m)    
  98   TwrBsMzt   (kN·m)    
  99   NcIMUTAxs  (m/s^2)   
 100   NcIMUTAys  (m/s^2)   
