*Heading
** Job name: Shell-AllLoads Model name: Model-1-ShellOnly
** Generated by: Abaqus/CAE 2023
*Preprint, echo=NO, model=NO, history=NO, contact=NO
**
** PARTS
**
*Part, name=Part-Shellonly
*End Part
**  
**
** ASSEMBLY
**
*Assembly, name=Assembly
**  
*Instance, name=Part-Shellonly-1, part=Part-Shellonly
*Node
      1,  -4.44000006,   1.94000006,          70.
      2,  -4.44000006,  -1.94000006,          70.
      3,  -4.44000006,  -1.94000006,           0.
      4,  -4.44000006,   1.94000006,           0.
      5,   4.44000006,  -1.94000006,          70.
      6,   4.44000006,  -1.94000006,           0.
      7,   4.44000006,   1.94000006,          70.
      8,   4.44000006,   1.94000006,           0.
      9,  -4.44000006,   1.45500004,          70.
     10,  -4.44000006,  0.970000029,          70.
     11,  -4.44000006,  0.485000014,          70.
     12,  -4.44000006,           0.,          70.
     13,  -4.44000006, -0.485000014,          70.
     14,  -4.44000006, -0.970000029,          70.
     15,  -4.44000006,  -1.45500004,          70.
     16,  -4.44000006,  -1.94000006,         69.5
     17,  -4.44000006,  -1.94000006,          69.
     18,  -4.44000006,  -1.94000006,         68.5
     19,  -4.44000006,  -1.94000006,          68.
     20,  -4.44000006,  -1.94000006,         67.5
** ... 7312 like lines cut
*Element, type=S4R
   1,    1,    9,  661,  300
   2,    9,   10,  662,  661
   3,   10,   11,  663,  662
   4,   11,   12,  664,  663
   5,   12,   13,  665,  664
   6,   13,   14,  666,  665
   7,   14,   15,  667,  666
   8,   15,    2,   16,  667
   9,  300,  661,  668,  299
  10,  661,  662,  669,  668
  11,  662,  663,  670,  669
  12,  663,  664,  671,  670
  13,  664,  665,  672,  671
  14,  665,  666,  673,  672
  15,  666,  667,  674,  673
  16,  667,   16,   17,  674
  17,  299,  668,  675,  298
  18,  668,  669,  676,  675
  19,  669,  670,  677,  676
  20,  670,  671,  678,  677
** ... 7260 like lines cut
*Nset, nset=Set-1, generate
    1,  7332,     1
*Elset, elset=Set-1, generate
    1,  7280,     1
** Section: Section-Shell
*Shell Section, elset=Set-1, material=Material-Al
0.12, 5
*End Instance
**  
*Nset, nset=Set-1, instance=Part-Shellonly-1
   3,   4,   6,   8, 155, 156, 157, 158, 159, 160, 161, 457, 458, 459, 460, 461
 462, 463, 464, 465, 466, 467, 468, 469, 470, 471, 472, 473, 620, 621, 622, 623
 624, 625, 626, 644, 645, 646, 647, 648, 649, 650, 651, 652, 653, 654, 655, 656
 657, 658, 659, 660
*Elset, elset=Set-1, instance=Part-Shellonly-1
 1113, 1114, 1115, 1116, 1117, 1118, 1119, 1120, 3623, 3624, 3625, 3626, 3627, 3628, 3629, 3630
 3631, 3632, 3633, 3634, 3635, 3636, 3637, 3638, 3639, 3640, 4753, 4754, 4755, 4756, 4757, 4758
 4759, 4760, 7263, 7264, 7265, 7266, 7267, 7268, 7269, 7270, 7271, 7272, 7273, 7274, 7275, 7276
 7277, 7278, 7279, 7280
*Elset, elset=_Surf-1_SNEG, internal, instance=Part-Shellonly-1, generate
 4761,  7280,     1
*Surface, type=ELEMENT, name=Surf-1
_Surf-1_SNEG, SNEG
*Elset, elset=_Surf-2_SPOS, internal, instance=Part-Shellonly-1, generate
 1121,  3640,     1
*Surface, type=ELEMENT, name=Surf-2
_Surf-2_SPOS, SPOS
*Elset, elset=_Surf-3_SNEG, internal, instance=Part-Shellonly-1, generate
 1121,  3640,     1
*Surface, type=ELEMENT, name=Surf-3
_Surf-3_SNEG, SNEG
*End Assembly
** 
** MATERIALS
** 
*Material, name=Material-Al
*Density
2710.,
*Elastic
 7e+10, 0.3
** ----------------------------------------------------------------
** 
** STEP: Step-1
** 
*Step, name=Step-1, nlgeom=YES
*Static
1., 1., 1e-05, 1.
** 
** BOUNDARY CONDITIONS
** 
** Name: BC-Base Type: Symmetry/Antisymmetry/Encastre
*Boundary
Set-1, ENCASTRE
** 
** LOADS
** 
** Name: Load-1   Type: Pressure
*Dsload
Surf-1, P, -79.3651
** Name: Load-2   Type: Pressure
*Dsload
Surf-3, P, 79.3651
** Name: Load-3   Type: Gravity
*Dload
, GRAV, 1., 0., 0., 1.
** Name: Load-4   Type: Rotational body force
*Dload
Part-Shellonly-1.Set-1, CENTRIF, 7.84,0.,0.,0.,0.,1.,0.
** 
** OUTPUT REQUESTS
** 
*Restart, write, frequency=0
** 
** FIELD OUTPUT: F-Output-1
** 
*Output, field, variable=PRESELECT
** 
** HISTORY OUTPUT: H-Output-1
** 
*Output, history, variable=PRESELECT
*End Step
