*Heading
** Job name: ShellnSolid-AllLoads Model name: Model-1-ShellnSolid
** Generated by: Abaqus/CAE 2023
*Preprint, echo=NO, model=NO, history=NO, contact=NO
**
** PARTS
**
*Part, name=Part-Shell
*End Part
**  
*Part, name=Part-Solid
*End Part
**  
**
** ASSEMBLY
**
*Assembly, name=Assembly
**  
*Instance, name=Part-Shell-1, part=Part-Shell
*Node
      1,  -4.44000006,   1.94000006,          50.
      2,  -4.44000006,  -1.94000006,          50.
      3,  -4.44000006,  -1.94000006,           0.
      4,  -4.44000006,   1.94000006,           0.
      5,   4.44000006,  -1.94000006,          50.
      6,   4.44000006,  -1.94000006,           0.
      7,   4.44000006,   1.94000006,          50.
      8,   4.44000006,   1.94000006,           0.
      9,  -4.44000006,   1.45500004,          50.
     10,  -4.44000006,  0.970000029,          50.
     11,  -4.44000006,  0.485000014,          50.
     12,  -4.44000006,           0.,          50.
     13,  -4.44000006, -0.485000014,          50.
     14,  -4.44000006, -0.970000029,          50.
     15,  -4.44000006,  -1.45500004,          50.
     16,  -4.44000006,  -1.94000006,         49.5
     17,  -4.44000006,  -1.94000006,          49.
     18,  -4.44000006,  -1.94000006,         48.5
     19,  -4.44000006,  -1.94000006,          48.
     20,  -4.44000006,  -1.94000006,         47.5
** ... 5232 like lines cut
*Element, type=S4R
  1,    1,    9,  501,  220
  2,    9,   10,  502,  501
  3,   10,   11,  503,  502
  4,   11,   12,  504,  503
  5,   12,   13,  505,  504
  6,   13,   14,  506,  505
  7,   14,   15,  507,  506
  8,   15,    2,   16,  507
  9,  220,  501,  508,  219
 10,  501,  502,  509,  508
 11,  502,  503,  510,  509
 12,  503,  504,  511,  510
 13,  504,  505,  512,  511
 14,  505,  506,  513,  512
 15,  506,  507,  514,  513
 16,  507,   16,   17,  514
 17,  219,  508,  515,  218
 18,  508,  509,  516,  515
 19,  509,  510,  517,  516
 20,  510,  511,  518,  517
** ... 5180 like lines cut
*Nset, nset=Set-Shell, generate
    1,  5252,     1
*Elset, elset=Set-Shell, generate
    1,  5200,     1
** Section: Section-Shell
*Shell Section, elset=Set-Shell, material=Material-Al
0.12, 5
*End Instance
**  
*Instance, name=Part-Solid-1, part=Part-Solid
          0.,           0.,          50.
*Node
      1,   4.38000011,         1.88,           0.
      2,  -4.38000011,         1.88,           0.
      3,  -4.38000011,        -1.88,           0.
      4,   4.38000011,        -1.88,           0.
      5,         -4.5,          -2.,           0.
      6,          4.5,          -2.,           0.
      7,         -4.5,           2.,           0.
      8,          4.5,           2.,           0.
      9,   3.89333344,         1.88,           0.
     10,   3.40666676,         1.88,           0.
     11,   2.92000008,         1.88,           0.
     12,    2.4333334,         1.88,           0.
     13,   1.94666672,         1.88,           0.
     14,   1.46000004,         1.88,           0.
     15,  0.973333359,         1.88,           0.
     16,  0.486666679,         1.88,           0.
     17,           0.,         1.88,           0.
     18, -0.486666679,         1.88,           0.
     19, -0.973333359,         1.88,           0.
     20,  -1.46000004,         1.88,           0.
** ... 4244 like lines cut
*Element, type=C3D8R
   1,    7,   74,   26,    2,  111,  178,  130,  106
   2,   74,   75,   27,   26,  178,  179,  131,  130
   3,   57,   58,   34,   33,  161,  162,  138,  137
   4,   81,   82,   10,    9,  185,  186,  114,  113
   5,   98,   99,   51,   50,  202,  203,  155,  154
   6,   82,   83,   11,   10,  186,  187,  115,  114
   7,   83,   84,   12,   11,  187,  188,  116,  115
   8,   84,   85,   13,   12,  188,  189,  117,  116
   9,   85,   86,   14,   13,  189,  190,  118,  117
  10,   86,   87,   15,   14,  190,  191,  119,  118
  11,   87,   88,   16,   15,  191,  192,  120,  119
  12,   88,   89,   17,   16,  192,  193,  121,  120
  13,   90,   18,   17,   89,  194,  122,  121,  193
  14,   91,   19,   18,   90,  195,  123,  122,  194
  15,   92,   20,   19,   91,  196,  124,  123,  195
  16,   93,   21,   20,   92,  197,  125,  124,  196
  17,   94,   22,   21,   93,  198,  126,  125,  197
  18,   95,   23,   22,   94,  199,  127,  126,  198
  19,   96,   24,   23,   95,  200,  128,  127,  199
  20,   97,   25,   24,   96,  201,  129,  128,  200
** ... 2060 like lines cut
*Nset, nset=Set-Solid, generate
    1,  4264,     1
*Elset, elset=Set-Solid, generate
    1,  2080,     1
** Section: Section-Solid
*Solid Section, elset=Set-Solid, material=Material-Al
,
*End Instance
**  
*Nset, nset=Set-All, instance=Part-Shell-1, generate
    1,  5252,     1
*Nset, nset=Set-All, instance=Part-Solid-1, generate
    1,  4264,     1
*Elset, elset=Set-All, instance=Part-Shell-1, generate
    1,  5200,     1
*Elset, elset=Set-All, instance=Part-Solid-1, generate
    1,  2080,     1
*Nset, nset=Set-Base, instance=Part-Shell-1
   3,   4,   6,   8, 115, 116, 117, 118, 119, 120, 121, 337, 338, 339, 340, 341
 342, 343, 344, 345, 346, 347, 348, 349, 350, 351, 352, 353, 460, 461, 462, 463
 464, 465, 466, 484, 485, 486, 487, 488, 489, 490, 491, 492, 493, 494, 495, 496
 497, 498, 499, 500
*Elset, elset=Set-Base, instance=Part-Shell-1
  793,  794,  795,  796,  797,  798,  799,  800, 2583, 2584, 2585, 2586, 2587, 2588, 2589, 2590
 2591, 2592, 2593, 2594, 2595, 2596, 2597, 2598, 2599, 2600, 3393, 3394, 3395, 3396, 3397, 3398
 3399, 3400, 5183, 5184, 5185, 5186, 5187, 5188, 5189, 5190, 5191, 5192, 5193, 5194, 5195, 5196
 5197, 5198, 5199, 5200
*Elset, elset=_Surf-Bot_SNEG, internal, instance=Part-Shell-1, generate
  801,  2600,     1
*Elset, elset=_Surf-Bot_S3, internal, instance=Part-Solid-1
    3,   28,   29,   30,   31,   32,   33,   34,   55,   80,   81,   82,   83,   84,   85,   86
  107,  132,  133,  134,  135,  136,  137,  138,  159,  184,  185,  186,  187,  188,  189,  190
  211,  236,  237,  238,  239,  240,  241,  242,  263,  288,  289,  290,  291,  292,  293,  294
  315,  340,  341,  342,  343,  344,  345,  346,  367,  392,  393,  394,  395,  396,  397,  398
  419,  444,  445,  446,  447,  448,  449,  450,  471,  496,  497,  498,  499,  500,  501,  502
  523,  548,  549,  550,  551,  552,  553,  554,  575,  600,  601,  602,  603,  604,  605,  606
  627,  652,  653,  654,  655,  656,  657,  658,  679,  704,  705,  706,  707,  708,  709,  710
  731,  756,  757,  758,  759,  760,  761,  762,  783,  808,  809,  810,  811,  812,  813,  814
  835,  860,  861,  862,  863,  864,  865,  866,  887,  912,  913,  914,  915,  916,  917,  918
  939,  964,  965,  966,  967,  968,  969,  970,  991, 1016, 1017, 1018, 1019, 1020, 1021, 1022
 1043, 1068, 1069, 1070, 1071, 1072, 1073, 1074, 1095, 1120, 1121, 1122, 1123, 1124, 1125, 1126
 1147, 1172, 1173, 1174, 1175, 1176, 1177, 1178, 1199, 1224, 1225, 1226, 1227, 1228, 1229, 1230
 1251, 1276, 1277, 1278, 1279, 1280, 1281, 1282, 1303, 1328, 1329, 1330, 1331, 1332, 1333, 1334
 1355, 1380, 1381, 1382, 1383, 1384, 1385, 1386, 1407, 1432, 1433, 1434, 1435, 1436, 1437, 1438
 1459, 1484, 1485, 1486, 1487, 1488, 1489, 1490, 1511, 1536, 1537, 1538, 1539, 1540, 1541, 1542
 1563, 1588, 1589, 1590, 1591, 1592, 1593, 1594, 1615, 1640, 1641, 1642, 1643, 1644, 1645, 1646
 1667, 1692, 1693, 1694, 1695, 1696, 1697, 1698, 1719, 1744, 1745, 1746, 1747, 1748, 1749, 1750
 1771, 1796, 1797, 1798, 1799, 1800, 1801, 1802, 1823, 1848, 1849, 1850, 1851, 1852, 1853, 1854
 1875, 1900, 1901, 1902, 1903, 1904, 1905, 1906, 1927, 1952, 1953, 1954, 1955, 1956, 1957, 1958
 1979, 2004, 2005, 2006, 2007, 2008, 2009, 2010, 2031, 2056, 2057, 2058, 2059, 2060, 2061, 2062
*Elset, elset=_Surf-Bot_S6, internal, instance=Part-Solid-1
   35,   36,   37,   38,   39,   40,   41,   42,   43,   87,   88,   89,   90,   91,   92,   93
   94,   95,  139,  140,  141,  142,  143,  144,  145,  146,  147,  191,  192,  193,  194,  195
  196,  197,  198,  199,  243,  244,  245,  246,  247,  248,  249,  250,  251,  295,  296,  297
  298,  299,  300,  301,  302,  303,  347,  348,  349,  350,  351,  352,  353,  354,  355,  399
  400,  401,  402,  403,  404,  405,  406,  407,  451,  452,  453,  454,  455,  456,  457,  458
  459,  503,  504,  505,  506,  507,  508,  509,  510,  511,  555,  556,  557,  558,  559,  560
  561,  562,  563,  607,  608,  609,  610,  611,  612,  613,  614,  615,  659,  660,  661,  662
  663,  664,  665,  666,  667,  711,  712,  713,  714,  715,  716,  717,  718,  719,  763,  764
  765,  766,  767,  768,  769,  770,  771,  815,  816,  817,  818,  819,  820,  821,  822,  823
  867,  868,  869,  870,  871,  872,  873,  874,  875,  919,  920,  921,  922,  923,  924,  925
  926,  927,  971,  972,  973,  974,  975,  976,  977,  978,  979, 1023, 1024, 1025, 1026, 1027
 1028, 1029, 1030, 1031, 1075, 1076, 1077, 1078, 1079, 1080, 1081, 1082, 1083, 1127, 1128, 1129
 1130, 1131, 1132, 1133, 1134, 1135, 1179, 1180, 1181, 1182, 1183, 1184, 1185, 1186, 1187, 1231
 1232, 1233, 1234, 1235, 1236, 1237, 1238, 1239, 1283, 1284, 1285, 1286, 1287, 1288, 1289, 1290
 1291, 1335, 1336, 1337, 1338, 1339, 1340, 1341, 1342, 1343, 1387, 1388, 1389, 1390, 1391, 1392
 1393, 1394, 1395, 1439, 1440, 1441, 1442, 1443, 1444, 1445, 1446, 1447, 1491, 1492, 1493, 1494
 1495, 1496, 1497, 1498, 1499, 1543, 1544, 1545, 1546, 1547, 1548, 1549, 1550, 1551, 1595, 1596
 1597, 1598, 1599, 1600, 1601, 1602, 1603, 1647, 1648, 1649, 1650, 1651, 1652, 1653, 1654, 1655
 1699, 1700, 1701, 1702, 1703, 1704, 1705, 1706, 1707, 1751, 1752, 1753, 1754, 1755, 1756, 1757
 1758, 1759, 1803, 1804, 1805, 1806, 1807, 1808, 1809, 1810, 1811, 1855, 1856, 1857, 1858, 1859
 1860, 1861, 1862, 1863, 1907, 1908, 1909, 1910, 1911, 1912, 1913, 1914, 1915, 1959, 1960, 1961
 1962, 1963, 1964, 1965, 1966, 1967, 2011, 2012, 2013, 2014, 2015, 2016, 2017, 2018, 2019, 2063
 2064, 2065, 2066, 2067, 2068, 2069, 2070, 2071
*Elset, elset=_Surf-Bot_S5, internal, instance=Part-Solid-1, generate
   50,  2078,    52
*Surface, type=ELEMENT, name=Surf-Bot
_Surf-Bot_SNEG, SNEG
_Surf-Bot_S3, S3
_Surf-Bot_S6, S6
_Surf-Bot_S5, S5
*Elset, elset=_Surf-Top_SNEG, internal, instance=Part-Shell-1, generate
 3401,  5200,     1
*Elset, elset=_Surf-Top_S3, internal, instance=Part-Solid-1
    4,    6,    7,    8,    9,   10,   11,   12,   56,   58,   59,   60,   61,   62,   63,   64
  108,  110,  111,  112,  113,  114,  115,  116,  160,  162,  163,  164,  165,  166,  167,  168
  212,  214,  215,  216,  217,  218,  219,  220,  264,  266,  267,  268,  269,  270,  271,  272
  316,  318,  319,  320,  321,  322,  323,  324,  368,  370,  371,  372,  373,  374,  375,  376
  420,  422,  423,  424,  425,  426,  427,  428,  472,  474,  475,  476,  477,  478,  479,  480
  524,  526,  527,  528,  529,  530,  531,  532,  576,  578,  579,  580,  581,  582,  583,  584
  628,  630,  631,  632,  633,  634,  635,  636,  680,  682,  683,  684,  685,  686,  687,  688
  732,  734,  735,  736,  737,  738,  739,  740,  784,  786,  787,  788,  789,  790,  791,  792
  836,  838,  839,  840,  841,  842,  843,  844,  888,  890,  891,  892,  893,  894,  895,  896
  940,  942,  943,  944,  945,  946,  947,  948,  992,  994,  995,  996,  997,  998,  999, 1000
 1044, 1046, 1047, 1048, 1049, 1050, 1051, 1052, 1096, 1098, 1099, 1100, 1101, 1102, 1103, 1104
 1148, 1150, 1151, 1152, 1153, 1154, 1155, 1156, 1200, 1202, 1203, 1204, 1205, 1206, 1207, 1208
 1252, 1254, 1255, 1256, 1257, 1258, 1259, 1260, 1304, 1306, 1307, 1308, 1309, 1310, 1311, 1312
 1356, 1358, 1359, 1360, 1361, 1362, 1363, 1364, 1408, 1410, 1411, 1412, 1413, 1414, 1415, 1416
 1460, 1462, 1463, 1464, 1465, 1466, 1467, 1468, 1512, 1514, 1515, 1516, 1517, 1518, 1519, 1520
 1564, 1566, 1567, 1568, 1569, 1570, 1571, 1572, 1616, 1618, 1619, 1620, 1621, 1622, 1623, 1624
 1668, 1670, 1671, 1672, 1673, 1674, 1675, 1676, 1720, 1722, 1723, 1724, 1725, 1726, 1727, 1728
 1772, 1774, 1775, 1776, 1777, 1778, 1779, 1780, 1824, 1826, 1827, 1828, 1829, 1830, 1831, 1832
 1876, 1878, 1879, 1880, 1881, 1882, 1883, 1884, 1928, 1930, 1931, 1932, 1933, 1934, 1935, 1936
 1980, 1982, 1983, 1984, 1985, 1986, 1987, 1988, 2032, 2034, 2035, 2036, 2037, 2038, 2039, 2040
*Elset, elset=_Surf-Top_S6, internal, instance=Part-Solid-1
   13,   14,   15,   16,   17,   18,   19,   20,   21,   65,   66,   67,   68,   69,   70,   71
   72,   73,  117,  118,  119,  120,  121,  122,  123,  124,  125,  169,  170,  171,  172,  173
  174,  175,  176,  177,  221,  222,  223,  224,  225,  226,  227,  228,  229,  273,  274,  275
  276,  277,  278,  279,  280,  281,  325,  326,  327,  328,  329,  330,  331,  332,  333,  377
  378,  379,  380,  381,  382,  383,  384,  385,  429,  430,  431,  432,  433,  434,  435,  436
  437,  481,  482,  483,  484,  485,  486,  487,  488,  489,  533,  534,  535,  536,  537,  538
  539,  540,  541,  585,  586,  587,  588,  589,  590,  591,  592,  593,  637,  638,  639,  640
  641,  642,  643,  644,  645,  689,  690,  691,  692,  693,  694,  695,  696,  697,  741,  742
  743,  744,  745,  746,  747,  748,  749,  793,  794,  795,  796,  797,  798,  799,  800,  801
  845,  846,  847,  848,  849,  850,  851,  852,  853,  897,  898,  899,  900,  901,  902,  903
  904,  905,  949,  950,  951,  952,  953,  954,  955,  956,  957, 1001, 1002, 1003, 1004, 1005
 1006, 1007, 1008, 1009, 1053, 1054, 1055, 1056, 1057, 1058, 1059, 1060, 1061, 1105, 1106, 1107
 1108, 1109, 1110, 1111, 1112, 1113, 1157, 1158, 1159, 1160, 1161, 1162, 1163, 1164, 1165, 1209
 1210, 1211, 1212, 1213, 1214, 1215, 1216, 1217, 1261, 1262, 1263, 1264, 1265, 1266, 1267, 1268
 1269, 1313, 1314, 1315, 1316, 1317, 1318, 1319, 1320, 1321, 1365, 1366, 1367, 1368, 1369, 1370
 1371, 1372, 1373, 1417, 1418, 1419, 1420, 1421, 1422, 1423, 1424, 1425, 1469, 1470, 1471, 1472
 1473, 1474, 1475, 1476, 1477, 1521, 1522, 1523, 1524, 1525, 1526, 1527, 1528, 1529, 1573, 1574
 1575, 1576, 1577, 1578, 1579, 1580, 1581, 1625, 1626, 1627, 1628, 1629, 1630, 1631, 1632, 1633
 1677, 1678, 1679, 1680, 1681, 1682, 1683, 1684, 1685, 1729, 1730, 1731, 1732, 1733, 1734, 1735
 1736, 1737, 1781, 1782, 1783, 1784, 1785, 1786, 1787, 1788, 1789, 1833, 1834, 1835, 1836, 1837
 1838, 1839, 1840, 1841, 1885, 1886, 1887, 1888, 1889, 1890, 1891, 1892, 1893, 1937, 1938, 1939
 1940, 1941, 1942, 1943, 1944, 1945, 1989, 1990, 1991, 1992, 1993, 1994, 1995, 1996, 1997, 2041
 2042, 2043, 2044, 2045, 2046, 2047, 2048, 2049
*Elset, elset=_Surf-Top_S5, internal, instance=Part-Solid-1, generate
   52,  2080,    52
*Surface, type=ELEMENT, name=Surf-Top
_Surf-Top_SNEG, SNEG
_Surf-Top_S3, S3
_Surf-Top_S6, S6
_Surf-Top_S5, S5
*Elset, elset=_m_Surf-Shell_E1, internal, instance=Part-Shell-1
    1,    2,    3,    4,    5,    6,    7,    8,  801,  802,  803,  804,  805,  806,  807,  808
  809,  810,  811,  812,  813,  814,  815,  816,  817,  818, 2601, 2602, 2603, 2604, 2605, 2606
 2607, 2608, 3401, 3402, 3403, 3404, 3405, 3406, 3407, 3408, 3409, 3410, 3411, 3412, 3413, 3414
 3415, 3416, 3417, 3418
*Surface, type=ELEMENT, name=m_Surf-Shell
_m_Surf-Shell_E1, E1
*Elset, elset=_s_Surf-solid_S1, internal, instance=Part-Solid-1, generate
  1,  52,   1
*Surface, type=ELEMENT, name=s_Surf-solid
_s_Surf-solid_S1, S1
** Constraint: Constraint-Shell2Solid
*Shell to Solid Coupling, constraint name=Constraint-Shell2Solid
m_Surf-Shell, s_Surf-solid
*End Assembly
** 
** MATERIALS
** 
*Material, name=Material-Al
*Density
2710.,
*Elastic
 7e+10, 0.3
** ----------------------------------------------------------------
** 
** STEP: Step-1
** 
*Step, name=Step-1, nlgeom=YES
*Static
1., 1., 1e-05, 1.
** 
** BOUNDARY CONDITIONS
** 
** Name: BC-base Type: Symmetry/Antisymmetry/Encastre
*Boundary
Set-Base, ENCASTRE
** 
** LOADS
** 
** Name: Load-1   Type: Pressure
*Dsload
Surf-Top, P, -79.3651
** Name: Load-2   Type: Pressure
*Dsload
Surf-Bot, P, 79.3651
** Name: Load-3   Type: Gravity
*Dload
, GRAV, 1., 0., 0., 1.
** Name: Load-4   Type: Rotational body force
*Dload
Set-All, CENTRIF, 7.84,0.,0.,0.,0.,1.,0.
** 
** OUTPUT REQUESTS
** 
*Restart, write, frequency=0
** 
** FIELD OUTPUT: F-Output-1
** 
*Output, field, variable=PRESELECT
** 
** HISTORY OUTPUT: H-Output-1
** 
*Output, history, variable=PRESELECT
*End Step
