*Heading
** Job name: Submodelling Model name: Submodelling
** Generated by: Abaqus/CAE 2023
*Preprint, echo=NO, model=NO, history=NO, contact=NO
**
** PARTS
**
*Part, name=Shell
*End Part
**  
**
** ASSEMBLY
**
*Assembly, name=Assembly
**  
*Instance, name=Shell-1, part=Shell
*Node
      1,   4.44000006,   1.94000006,          50.
      2,  -4.44000006,   1.94000006,          50.
      3,  -4.44000006,   1.94000006,           0.
      4,   4.44000006,   1.94000006,           0.
      5,   4.44000006,  -1.94000006,          50.
      6,   4.44000006,  -1.94000006,          70.
      7,   4.44000006,   1.94000006,          70.
      8,  -4.44000006,  -1.94000006,          50.
      9,  -4.44000006,  -1.94000006,          70.
     10,  -4.44000006,  -1.94000006,           0.
     11,  -4.44000006,   1.94000006,          70.
     12,   4.44000006,  -1.94000006,           0.
     13,   3.94666672,   1.94000006,          50.
     14,   3.45333338,   1.94000006,          50.
     15,   2.96000004,   1.94000006,          50.
     16,    2.4666667,   1.94000006,          50.
     17,   1.97333336,   1.94000006,          50.
     18,   1.48000002,   1.94000006,          50.
     19,  0.986666679,   1.94000006,          50.
     20,   0.49333334,   1.94000006,          50.
** ... 7312 like lines cut
*Element, type=S4R
   1,    1,   13,  709,  244
   2,   13,   14,  710,  709
   3,   14,   15,  711,  710
   4,   15,   16,  712,  711
   5,   16,   17,  713,  712
   6,   17,   18,  714,  713
   7,   18,   19,  715,  714
   8,   19,   20,  716,  715
   9,   20,   21,  717,  716
  10,   21,   22,  718,  717
  11,   22,   23,  719,  718
  12,   23,   24,  720,  719
  13,   24,   25,  721,  720
  14,   25,   26,  722,  721
  15,   26,   27,  723,  722
  16,   27,   28,  724,  723
  17,   28,   29,  725,  724
  18,   29,    2,   30,  725
  19,  244,  709,  726,  243
  20,  709,  710,  727,  726
** ... 7260 like lines cut
*Nset, nset=Set-1, generate
    1,  7332,     1
*Elset, elset=Set-1, generate
    1,  7280,     1
** Section: Section-1
*Shell Section, elset=Set-1, material=Material-Al
0.12, 5
*End Instance
**  
*Nset, nset=Set-1, instance=Shell-1
   3,   4,  10,  12, 129, 130, 131, 132, 133, 134, 135, 136, 137, 138, 139, 140
 141, 142, 143, 144, 145, 516, 517, 518, 519, 520, 521, 522, 668, 669, 670, 671
 672, 673, 674, 675, 676, 677, 678, 679, 680, 681, 682, 683, 684, 685, 686, 687
 688, 689, 690, 691
*Elset, elset=Set-1, instance=Shell-1
 1783, 1784, 1785, 1786, 1787, 1788, 1789, 1790, 1791, 1792, 1793, 1794, 1795, 1796, 1797, 1798
 1799, 1800, 3633, 3634, 3635, 3636, 3637, 3638, 3639, 3640, 5743, 5744, 5745, 5746, 5747, 5748
 5749, 5750, 5751, 5752, 5753, 5754, 5755, 5756, 5757, 5758, 5759, 5760, 6553, 6554, 6555, 6556
 6557, 6558, 6559, 6560
*Elset, elset=_Surf-Bot_SNEG, internal, instance=Shell-1
 2121, 2122, 2123, 2124, 2125, 2126, 2127, 2128, 2129, 2130, 2131, 2132, 2133, 2134, 2135, 2136
 2137, 2138, 2139, 2140, 2141, 2142, 2143, 2144, 2145, 2146, 2147, 2148, 2149, 2150, 2151, 2152
 2153, 2154, 2155, 2156, 2157, 2158, 2159, 2160, 2161, 2162, 2163, 2164, 2165, 2166, 2167, 2168
 2169, 2170, 2171, 2172, 2173, 2174, 2175, 2176, 2177, 2178, 2179, 2180, 2181, 2182, 2183, 2184
 2185, 2186, 2187, 2188, 2189, 2190, 2191, 2192, 2193, 2194, 2195, 2196, 2197, 2198, 2199, 2200
 2201, 2202, 2203, 2204, 2205, 2206, 2207, 2208, 2209, 2210, 2211, 2212, 2213, 2214, 2215, 2216
 2217, 2218, 2219, 2220, 2221, 2222, 2223, 2224, 2225, 2226, 2227, 2228, 2229, 2230, 2231, 2232
 2233, 2234, 2235, 2236, 2237, 2238, 2239, 2240, 2241, 2242, 2243, 2244, 2245, 2246, 2247, 2248
 2249, 2250, 2251, 2252, 2253, 2254, 2255, 2256, 2257, 2258, 2259, 2260, 2261, 2262, 2263, 2264
 2265, 2266, 2267, 2268, 2269, 2270, 2271, 2272, 2273, 2274, 2275, 2276, 2277, 2278, 2279, 2280
 2281, 2282, 2283, 2284, 2285, 2286, 2287, 2288, 2289, 2290, 2291, 2292, 2293, 2294, 2295, 2296
 2297, 2298, 2299, 2300, 2301, 2302, 2303, 2304, 2305, 2306, 2307, 2308, 2309, 2310, 2311, 2312
 2313, 2314, 2315, 2316, 2317, 2318, 2319, 2320, 2321, 2322, 2323, 2324, 2325, 2326, 2327, 2328
 2329, 2330, 2331, 2332, 2333, 2334, 2335, 2336, 2337, 2338, 2339, 2340, 2341, 2342, 2343, 2344
 2345, 2346, 2347, 2348, 2349, 2350, 2351, 2352, 2353, 2354, 2355, 2356, 2357, 2358, 2359, 2360
 2361, 2362, 2363, 2364, 2365, 2366, 2367, 2368, 2369, 2370, 2371, 2372, 2373, 2374, 2375, 2376
 2377, 2378, 2379, 2380, 2381, 2382, 2383, 2384, 2385, 2386, 2387, 2388, 2389, 2390, 2391, 2392
 2393, 2394, 2395, 2396, 2397, 2398, 2399, 2400, 2401, 2402, 2403, 2404, 2405, 2406, 2407, 2408
 2409, 2410, 2411, 2412, 2413, 2414, 2415, 2416, 2417, 2418, 2419, 2420, 2421, 2422, 2423, 2424
 2425, 2426, 2427, 2428, 2429, 2430, 2431, 2432, 2433, 2434, 2435, 2436, 2437, 2438, 2439, 2440
** ... 138 like lines cut
*Surface, type=ELEMENT, name=Surf-Bot
_Surf-Bot_SNEG, SNEG
*Elset, elset=_Surf-Top_SNEG, internal, instance=Shell-1
    1,    2,    3,    4,    5,    6,    7,    8,    9,   10,   11,   12,   13,   14,   15,   16
   17,   18,   19,   20,   21,   22,   23,   24,   25,   26,   27,   28,   29,   30,   31,   32
   33,   34,   35,   36,   37,   38,   39,   40,   41,   42,   43,   44,   45,   46,   47,   48
   49,   50,   51,   52,   53,   54,   55,   56,   57,   58,   59,   60,   61,   62,   63,   64
   65,   66,   67,   68,   69,   70,   71,   72,   73,   74,   75,   76,   77,   78,   79,   80
   81,   82,   83,   84,   85,   86,   87,   88,   89,   90,   91,   92,   93,   94,   95,   96
   97,   98,   99,  100,  101,  102,  103,  104,  105,  106,  107,  108,  109,  110,  111,  112
  113,  114,  115,  116,  117,  118,  119,  120,  121,  122,  123,  124,  125,  126,  127,  128
  129,  130,  131,  132,  133,  134,  135,  136,  137,  138,  139,  140,  141,  142,  143,  144
  145,  146,  147,  148,  149,  150,  151,  152,  153,  154,  155,  156,  157,  158,  159,  160
  161,  162,  163,  164,  165,  166,  167,  168,  169,  170,  171,  172,  173,  174,  175,  176
  177,  178,  179,  180,  181,  182,  183,  184,  185,  186,  187,  188,  189,  190,  191,  192
  193,  194,  195,  196,  197,  198,  199,  200,  201,  202,  203,  204,  205,  206,  207,  208
  209,  210,  211,  212,  213,  214,  215,  216,  217,  218,  219,  220,  221,  222,  223,  224
  225,  226,  227,  228,  229,  230,  231,  232,  233,  234,  235,  236,  237,  238,  239,  240
  241,  242,  243,  244,  245,  246,  247,  248,  249,  250,  251,  252,  253,  254,  255,  256
  257,  258,  259,  260,  261,  262,  263,  264,  265,  266,  267,  268,  269,  270,  271,  272
  273,  274,  275,  276,  277,  278,  279,  280,  281,  282,  283,  284,  285,  286,  287,  288
  289,  290,  291,  292,  293,  294,  295,  296,  297,  298,  299,  300,  301,  302,  303,  304
  305,  306,  307,  308,  309,  310,  311,  312,  313,  314,  315,  316,  317,  318,  319,  320
** ... 138 like lines cut
*Surface, type=ELEMENT, name=Surf-Top
_Surf-Top_SNEG, SNEG
*End Assembly
** 
** MATERIALS
** 
*Material, name=Material-Al
*Density
2710.,
*Elastic
 7e+10, 0.3
** ----------------------------------------------------------------
** 
** STEP: Step-1
** 
*Step, name=Step-1, nlgeom=YES
*Static
1., 1., 1e-05, 1.
** 
** BOUNDARY CONDITIONS
** 
** Name: BC-Base Type: Symmetry/Antisymmetry/Encastre
*Boundary
Set-1, ENCASTRE
** 
** LOADS
** 
** Name: Load-1   Type: Pressure
*Dsload
Surf-Top, P, -79.365
** Name: Load-2   Type: Pressure
*Dsload
Surf-Bot, P, 79.365
** Name: Load-3   Type: Gravity
*Dload
, GRAV, 1., 0., 0., 1.
** Name: Load-4   Type: Rotational body force
*Dload
Shell-1.Set-1, CENTRIF, 7.84,0.,0.,0.,0.,1.,0.
** 
** OUTPUT REQUESTS
** 
*Restart, write, frequency=0
** 
** FIELD OUTPUT: F-Output-1
** 
*Output, field, variable=PRESELECT
** 
** HISTORY OUTPUT: H-Output-1
** 
*Output, history, variable=PRESELECT
*End Step
