*Heading
** Job name: SubmodellingSolid Model name: SubmodellingSolidTip
** Generated by: Abaqus/CAE 2023
*Preprint, echo=NO, model=NO, history=NO, contact=NO
**
** PARTS
**
*Part, name="Solid Tip"
*End Part
**  
**
** ASSEMBLY
**
*Assembly, name=Assembly
**  
*Instance, name="Solid Tip-1", part="Solid Tip"
          0.,           0.,          50.
*Node
      1,  -4.44000006,  -1.94000006,           0.
      2,  -4.44000006,   1.94000006,           0.
      3,   4.44000006,   1.94000006,           0.
      4,   4.44000006,  -1.94000006,           0.
      5,  -4.40999985,   1.90999997,           0.
      6,  -4.40999985,  -1.90999997,           0.
      7,   4.40999985,  -1.90999997,           0.
      8,   4.40999985,   1.90999997,           0.
      9,   4.38000011,         1.88,           0.
     10,  -4.38000011,         1.88,           0.
     11,  -4.38000011,        -1.88,           0.
     12,   4.38000011,        -1.88,           0.
     13,  -4.46999979,  -1.97000003,           0.
     14,  -4.46999979,   1.97000003,           0.
     15,   4.46999979,   1.97000003,           0.
     16,   4.46999979,  -1.97000003,           0.
     17,          4.5,          -2.,           0.
     18,         -4.5,          -2.,           0.
     19,         -4.5,           2.,           0.
     20,          4.5,           2.,           0.
** ... 10640 like lines cut
*Element, type=C3D8R
   1,    27,    26,    70,    69,   287,   286,   330,   329
   2,   116,    28,     2,     5,   376,   288,   262,   265
   3,    43,    42,   102,   101,   303,   302,   362,   361
   4,    99,    45,     3,     8,   359,   305,   263,   268
   5,    92,    52,     4,     7,   352,   312,   264,   267
   6,    75,    21,     1,     6,   335,   281,   261,   266
   7,    67,    66,    78,    77,   327,   326,   338,   337
   8,    51,    50,    94,    93,   311,   310,   354,   353
   9,    69,     5,     2,    27,   329,   265,   262,   287
  10,    71,    70,    26,    25,   331,   330,   286,   285
  11,    72,    71,    25,    24,   332,   331,   285,   284
  12,    72,    24,    23,    73,   332,   284,   283,   333
  13,    21,    75,    74,    22,   281,   335,   334,   282
  14,   101,   100,    44,    43,   361,   360,   304,   303
  15,   103,   102,    42,    41,   363,   362,   302,   301
  16,    41,    40,   104,   103,   301,   300,   364,   363
  17,    40,    39,   105,   104,   300,   299,   365,   364
  18,    39,    38,   106,   105,   299,   298,   366,   365
  19,    38,    37,   107,   106,   298,   297,   367,   366
  20,    37,    36,   108,   107,   297,   296,   368,   367
** ... 8300 like lines cut
*Nset, nset=Set-1, generate
     1,  10660,      1
*Elset, elset=Set-1, generate
    1,  8320,     1
** Section: Section-1
*Solid Section, elset=Set-1, material=Material-Al
,
*End Instance
**  
*Nset, nset=Set-1, instance="Solid Tip-1", generate
   1,  260,    1
*Elset, elset=Set-1, instance="Solid Tip-1", generate
   1,  208,    1
*Submodel, type=NODE, shell to solid, shell thickness=0.12, exteriorTolerance=0.05
Set-1, 
*End Assembly
** 
** MATERIALS
** 
*Material, name=Material-Al
*Density
2710.,
*Elastic
 7e+10, 0.3
** ----------------------------------------------------------------
** 
** STEP: Step-1
** 
*Step, name=Step-1, nlgeom=YES
*Static
1., 1., 1e-05, 1.
** 
** BOUNDARY CONDITIONS
** 
** Name: BC-1 Type: Submodel
*Boundary, submodel, step=1
Set-1, 0.1
** 
** OUTPUT REQUESTS
** 
*Restart, write, frequency=0
** 
** FIELD OUTPUT: F-Output-1
** 
*Output, field, variable=PRESELECT
** 
** HISTORY OUTPUT: H-Output-1
** 
*Output, history, variable=PRESELECT
*End Step
