
This summary file was generated by HydroDyn v2.05.01 on 26-Jan-2018 at 21:16:26.

WAMIT Model
-----------
  Displaced volume (m^3)                 :     2.350900E+04
  X-offset of the center of buoyancy (m) :     0.000000E+00
  Y-offset of the center of buoyancy (m) :     0.000000E+00


  Buoyancy loads from members modelled with WAMIT, summed about ( 0.0, 0.0, 0.0 )
                                BuoyFxi               BuoyFyi               BuoyFzi               BuoyMxi               BuoyMyi               BuoyMzi 
                                  (N)                   (N)                   (N)                  (N-m)                 (N-m)                 (N-m)  
  External:                 0.000000E+00          0.000000E+00          2.363081E+08          0.000000E+00          0.000000E+00          0.000000E+00



Volume Calculations(m^3)
------------------------
  Structure Volume     :    0.00000E+00
  Submerged Volume     :    0.00000E+00
  Marine Growth Volume :    0.00000E+00
  Ballasted Volume     :    0.00000E+00
              NOTE: Structure, Submerged and Marine Growth volumes are based on members not modelled with WAMIT
                      Ballasted volume is computed from all members which are marked as filled in the HydroDyn input file, regardless of PropPot flag



Buoyancy loads summed about ( 0.0, 0.0, 0.0 )
---------------------------------------------
                                BuoyFxi               BuoyFyi               BuoyFzi               BuoyMxi               BuoyMyi               BuoyMzi 
                                  (N)                   (N)                   (N)                  (N-m)                 (N-m)                 (N-m)  
 External:                  0.000000E+00          0.000000E+00          0.000000E+00          0.000000E+00          0.000000E+00          0.000000E+00
 Internal:                  0.000000E+00          0.000000E+00          0.000000E+00          0.000000E+00          0.000000E+00          0.000000E+00
 Total   :                  0.000000E+00          0.000000E+00          0.000000E+00          0.000000E+00          0.000000E+00          0.000000E+00
              NOTE: External buoyancy is based on members not modelled with WAMIT
                      Internal buoyancy is computed from all members which are marked as filled in the HydroDyn input file, regardless of PropPot flag
                    Total buoyancy does not include WAMIT-modelled buoyancy contribution



Weight loads about ( 0.0, 0.0, 0.0 )
------------------------------------
                                 MGFxi                 MGFyi                 MGFzi                 MGMxi                 MGMyi                 MGMzi  
                                  (N)                   (N)                   (N)                  (N-m)                 (N-m)                 (N-m)  
 Marine Growth:             0.000000E+00          0.000000E+00          0.000000E+00          0.000000E+00          0.000000E+00          0.000000E+00



Nodes


   i    JointIndx   JointOvrlp  InpMbrIndx     Nxi         Nyi         Nzi      InpMbrDist       R         dRdZ         t          tMG        MGDens      PropPot   FilledFlag   FillDens   FillFSLoc       Cd          Ca          Cp         AxCa        AxCp        JAxCd       JAxCa       JAxCp    NConn  Connection List
  (-)      (-)         (-)         (-)         (m)         (m)         (m)          (-)         (m)         (-)        (m)         (m)       (kg/m^3)      (-)         (-)       (kg/m^3)       (-)         (-)         (-)         (-)         (-)         (-)         (-)         (-)         (-)      (-)                  
     1           1           0           1      0.0000      0.0000     11.0000      0.0000   6.025E+00   0.000E+00   0.000E+00   0.000E+00   0.000E+00           T           F   0.000E+00   0.000E+00   7.290E-01   0.000E+00   0.000E+00   0.000E+00   0.000E+00   0.000E+00   0.000E+00   0.000E+00      1    26
     2           2           0           2      0.0000      0.0000      2.7750      0.0000   6.025E+00  -1.167E-01   0.000E+00   0.000E+00   0.000E+00           T           F   0.000E+00   0.000E+00   7.040E-01   0.000E+00   0.000E+00   0.000E+00   0.000E+00   0.000E+00   0.000E+00   0.000E+00      1   171
     3           3           0           2      0.0000      0.0000    -15.0000      1.0000   8.100E+00  -1.167E-01   0.000E+00   0.000E+00   0.000E+00           T           F   0.000E+00   0.000E+00   7.290E-01   0.000E+00   0.000E+00   0.000E+00   0.000E+00   1.499E+01   0.000E+00   0.000E+00      1     2
     4           4           0           3     -4.6188      0.0000    -18.5000      0.0000   3.500E+00   0.000E+00   0.000E+00   0.000E+00   0.000E+00           T           F   0.000E+00   0.000E+00   2.050E+00   0.000E+00   0.000E+00   0.000E+00   0.000E+00   0.000E+00   0.000E+00   0.000E+00      1    64
     5           5           0           3    -29.1000      0.0000    -18.5000      1.0000   3.500E+00   0.000E+00   0.000E+00   0.000E+00   0.000E+00           T           F   0.000E+00   0.000E+00   2.050E+00   0.000E+00   0.000E+00   0.000E+00   0.000E+00   0.000E+00   0.000E+00   0.000E+00      1     3
     6           6           0           4    -37.0000      0.0000    -21.5000      0.0000   7.900E+00   0.000E+00   0.000E+00   0.000E+00   0.000E+00           T           F   0.000E+00   0.000E+00   7.060E-01   0.000E+00   0.000E+00   0.000E+00   0.000E+00   3.834E+01   0.000E+00   0.000E+00      1     4
     7           7           0           4    -37.0000      0.0000    -15.0000      1.0000   7.900E+00   0.000E+00   0.000E+00   0.000E+00   0.000E+00           T           F   0.000E+00   0.000E+00   7.060E-01   0.000E+00   0.000E+00   0.000E+00   0.000E+00   0.000E+00   0.000E+00   0.000E+00      1    70
     8           8           0           5    -37.0000      0.0000     -4.0000      1.0000   6.700E+00  -1.091E-01   0.000E+00   0.000E+00   0.000E+00           T           F   0.000E+00   0.000E+00   7.200E-01   0.000E+00   0.000E+00   0.000E+00   0.000E+00   0.000E+00   0.000E+00   0.000E+00      1    80
     9           9           0           6    -37.0000      0.0000      9.5000      1.0000   6.700E+00   0.000E+00   0.000E+00   0.000E+00   0.000E+00           T           F   0.000E+00   0.000E+00   7.200E-01   0.000E+00   0.000E+00   0.000E+00   0.000E+00   0.000E+00   0.000E+00   0.000E+00      1   180
    10          10           0           7      2.3094      4.0000    -18.5000      0.0000   3.500E+00   0.000E+00   0.000E+00   0.000E+00   0.000E+00           T           F   0.000E+00   0.000E+00   2.050E+00   0.000E+00   0.000E+00   0.000E+00   0.000E+00   0.000E+00   0.000E+00   0.000E+00      1     7
    11          11           0           7     14.5500     25.2013    -18.5000      1.0000   3.500E+00   0.000E+00   0.000E+00   0.000E+00   0.000E+00           T           F   0.000E+00   0.000E+00   2.050E+00   0.000E+00   0.000E+00   0.000E+00   0.000E+00   0.000E+00   0.000E+00   0.000E+00      1   107
    12          12           0           8     18.5000     32.0429    -21.5000      0.0000   7.900E+00   0.000E+00   0.000E+00   0.000E+00   0.000E+00           T           F   0.000E+00   0.000E+00   7.060E-01   0.000E+00   0.000E+00   0.000E+00   0.000E+00   3.834E+01   0.000E+00   0.000E+00      1     8
    13          13           0           8     18.5000     32.0429    -15.0000      1.0000   7.900E+00   0.000E+00   0.000E+00   0.000E+00   0.000E+00           T           F   0.000E+00   0.000E+00   7.060E-01   0.000E+00   0.000E+00   0.000E+00   0.000E+00   0.000E+00   0.000E+00   0.000E+00      1   113
    14          14           0           9     18.5000     32.0429     -4.0000      1.0000   6.700E+00  -1.091E-01   0.000E+00   0.000E+00   0.000E+00           T           F   0.000E+00   0.000E+00   7.200E-01   0.000E+00   0.000E+00   0.000E+00   0.000E+00   0.000E+00   0.000E+00   0.000E+00      1   123
    15          15           0          10     18.5000     32.0429      9.5000      1.0000   6.700E+00   0.000E+00   0.000E+00   0.000E+00   0.000E+00           T           F   0.000E+00   0.000E+00   7.200E-01   0.000E+00   0.000E+00   0.000E+00   0.000E+00   0.000E+00   0.000E+00   0.000E+00      1   189
    16          16           0          11      2.3094     -4.0000    -18.5000      0.0000   3.500E+00   0.000E+00   0.000E+00   0.000E+00   0.000E+00           T           F   0.000E+00   0.000E+00   2.050E+00   0.000E+00   0.000E+00   0.000E+00   0.000E+00   0.000E+00   0.000E+00   0.000E+00      1    11
    17          17           0          11     14.5500    -25.2013    -18.5000      1.0000   3.500E+00   0.000E+00   0.000E+00   0.000E+00   0.000E+00           T           F   0.000E+00   0.000E+00   2.050E+00   0.000E+00   0.000E+00   0.000E+00   0.000E+00   0.000E+00   0.000E+00   0.000E+00      1   150
    18          18           0          12     18.5000    -32.0429    -21.5000      0.0000   7.900E+00   0.000E+00   0.000E+00   0.000E+00   0.000E+00           T           F   0.000E+00   0.000E+00   7.060E-01   0.000E+00   0.000E+00   0.000E+00   0.000E+00   3.834E+01   0.000E+00   0.000E+00      1    12
    19          19           0          12     18.5000    -32.0429    -15.0000      1.0000   7.900E+00   0.000E+00   0.000E+00   0.000E+00   0.000E+00           T           F   0.000E+00   0.000E+00   7.060E-01   0.000E+00   0.000E+00   0.000E+00   0.000E+00   0.000E+00   0.000E+00   0.000E+00      1   156
    20          20           0          13     18.5000    -32.0429     -4.0000      1.0000   6.700E+00  -1.091E-01   0.000E+00   0.000E+00   0.000E+00           T           F   0.000E+00   0.000E+00   7.200E-01   0.000E+00   0.000E+00   0.000E+00   0.000E+00   0.000E+00   0.000E+00   0.000E+00      1   166
    21          21           0          14     18.5000    -32.0429      9.5000      1.0000   6.700E+00   0.000E+00   0.000E+00   0.000E+00   0.000E+00           T           F   0.000E+00   0.000E+00   7.200E-01   0.000E+00   0.000E+00   0.000E+00   0.000E+00   0.000E+00   0.000E+00   0.000E+00      1   198
    22          22           0           2      0.0000      0.0000      0.0000      0.1561   6.349E+00  -1.167E-01   0.000E+00   0.000E+00   0.000E+00           T           F   0.000E+00   0.000E+00   7.040E-01   0.000E+00   0.000E+00   0.000E+00   0.000E+00   0.000E+00   0.000E+00   0.000E+00      1    40
    23          23           0           6    -37.0000      0.0000      0.0000      0.2963   6.700E+00   0.000E+00   0.000E+00   0.000E+00   0.000E+00           T           F   0.000E+00   0.000E+00   7.200E-01   0.000E+00   0.000E+00   0.000E+00   0.000E+00   0.000E+00   0.000E+00   0.000E+00      1    83
    24          24           0          10     18.5000     32.0429      0.0000      0.2963   6.700E+00   0.000E+00   0.000E+00   0.000E+00   0.000E+00           T           F   0.000E+00   0.000E+00   7.200E-01   0.000E+00   0.000E+00   0.000E+00   0.000E+00   0.000E+00   0.000E+00   0.000E+00      1   126
    25          25           0          14     18.5000    -32.0429      0.0000      0.2963   6.700E+00   0.000E+00   0.000E+00   0.000E+00   0.000E+00           T           F   0.000E+00   0.000E+00   7.200E-01   0.000E+00   0.000E+00   0.000E+00   0.000E+00   0.000E+00   0.000E+00   0.000E+00      1   169
    26          -1           0           1      0.0000      0.0000      3.6889      0.8889   6.025E+00   0.000E+00   0.000E+00   0.000E+00   0.000E+00           T           F   0.000E+00   0.000E+00   7.290E-01   0.000E+00   0.000E+00   0.000E+00   0.000E+00   0.000E+00   0.000E+00   0.000E+00      2     1    19
    27          -1           0           1      0.0000      0.0000      4.6028      0.7778   6.025E+00   0.000E+00   0.000E+00   0.000E+00   0.000E+00           T           F   0.000E+00   0.000E+00   7.290E-01   0.000E+00   0.000E+00   0.000E+00   0.000E+00   0.000E+00   0.000E+00   0.000E+00      2    19    20
    28          -1           0           1      0.0000      0.0000      5.5167      0.6667   6.025E+00   0.000E+00   0.000E+00   0.000E+00   0.000E+00           T           F   0.000E+00   0.000E+00   7.290E-01   0.000E+00   0.000E+00   0.000E+00   0.000E+00   0.000E+00   0.000E+00   0.000E+00      2    20    21
    29          -1           0           1      0.0000      0.0000      6.4306      0.5556   6.025E+00   0.000E+00   0.000E+00   0.000E+00   0.000E+00           T           F   0.000E+00   0.000E+00   7.290E-01   0.000E+00   0.000E+00   0.000E+00   0.000E+00   0.000E+00   0.000E+00   0.000E+00      2    21    22
    30          -1           0           1      0.0000      0.0000      7.3444      0.4444   6.025E+00   0.000E+00   0.000E+00   0.000E+00   0.000E+00           T           F   0.000E+00   0.000E+00   7.290E-01   0.000E+00   0.000E+00   0.000E+00   0.000E+00   0.000E+00   0.000E+00   0.000E+00      2    22    23
    31          -1           0           1      0.0000      0.0000      8.2583      0.3333   6.025E+00   0.000E+00   0.000E+00   0.000E+00   0.000E+00           T           F   0.000E+00   0.000E+00   7.290E-01   0.000E+00   0.000E+00   0.000E+00   0.000E+00   0.000E+00   0.000E+00   0.000E+00      2    23    24
    32          -1           0           1      0.0000      0.0000      9.1722      0.2222   6.025E+00   0.000E+00   0.000E+00   0.000E+00   0.000E+00           T           F   0.000E+00   0.000E+00   7.290E-01   0.000E+00   0.000E+00   0.000E+00   0.000E+00   0.000E+00   0.000E+00   0.000E+00      2    24    25
    33          -1           0           1      0.0000      0.0000     10.0861      0.1111   6.025E+00   0.000E+00   0.000E+00   0.000E+00   0.000E+00           T           F   0.000E+00   0.000E+00   7.290E-01   0.000E+00   0.000E+00   0.000E+00   0.000E+00   0.000E+00   0.000E+00   0.000E+00      2    25    26
    34          -1           0           2      0.0000      0.0000    -14.0000      0.9437   7.983E+00  -1.167E-01   0.000E+00   0.000E+00   0.000E+00           T           F   0.000E+00   0.000E+00   7.040E-01   0.000E+00   0.000E+00   0.000E+00   0.000E+00   0.000E+00   0.000E+00   0.000E+00      2     2    27
    35          -1           0           2      0.0000      0.0000    -13.0000      0.8875   7.867E+00  -1.167E-01   0.000E+00   0.000E+00   0.000E+00           T           F   0.000E+00   0.000E+00   7.040E-01   0.000E+00   0.000E+00   0.000E+00   0.000E+00   0.000E+00   0.000E+00   0.000E+00      2    27    28
    36          -1           0           2      0.0000      0.0000    -12.0000      0.8312   7.750E+00  -1.167E-01   0.000E+00   0.000E+00   0.000E+00           T           F   0.000E+00   0.000E+00   7.040E-01   0.000E+00   0.000E+00   0.000E+00   0.000E+00   0.000E+00   0.000E+00   0.000E+00      2    28    29
    37          -1           0           2      0.0000      0.0000    -11.0000      0.7750   7.633E+00  -1.167E-01   0.000E+00   0.000E+00   0.000E+00           T           F   0.000E+00   0.000E+00   7.040E-01   0.000E+00   0.000E+00   0.000E+00   0.000E+00   0.000E+00   0.000E+00   0.000E+00      2    29    30
    38          -1           0           2      0.0000      0.0000    -10.0000      0.7187   7.516E+00  -1.167E-01   0.000E+00   0.000E+00   0.000E+00           T           F   0.000E+00   0.000E+00   7.040E-01   0.000E+00   0.000E+00   0.000E+00   0.000E+00   0.000E+00   0.000E+00   0.000E+00      2    30    31
    39          -1           0           2      0.0000      0.0000     -9.0000      0.6624   7.400E+00  -1.167E-01   0.000E+00   0.000E+00   0.000E+00           T           F   0.000E+00   0.000E+00   7.040E-01   0.000E+00   0.000E+00   0.000E+00   0.000E+00   0.000E+00   0.000E+00   0.000E+00      2    31    32
    40          -1           0           2      0.0000      0.0000     -8.0000      0.6062   7.283E+00  -1.167E-01   0.000E+00   0.000E+00   0.000E+00           T           F   0.000E+00   0.000E+00   7.040E-01   0.000E+00   0.000E+00   0.000E+00   0.000E+00   0.000E+00   0.000E+00   0.000E+00      2    32    33
    41          -1           0           2      0.0000      0.0000     -7.0000      0.5499   7.166E+00  -1.167E-01   0.000E+00   0.000E+00   0.000E+00           T           F   0.000E+00   0.000E+00   7.040E-01   0.000E+00   0.000E+00   0.000E+00   0.000E+00   0.000E+00   0.000E+00   0.000E+00      2    33    34
    42          -1           0           2      0.0000      0.0000     -6.0000      0.4937   7.049E+00  -1.167E-01   0.000E+00   0.000E+00   0.000E+00           T           F   0.000E+00   0.000E+00   7.040E-01   0.000E+00   0.000E+00   0.000E+00   0.000E+00   0.000E+00   0.000E+00   0.000E+00      2    34    35
    43          -1           0           2      0.0000      0.0000     -5.0000      0.4374   6.933E+00  -1.167E-01   0.000E+00   0.000E+00   0.000E+00           T           F   0.000E+00   0.000E+00   7.040E-01   0.000E+00   0.000E+00   0.000E+00   0.000E+00   0.000E+00   0.000E+00   0.000E+00      2    35    36
    44          -1           0           2      0.0000      0.0000     -4.0000      0.3812   6.816E+00  -1.167E-01   0.000E+00   0.000E+00   0.000E+00           T           F   0.000E+00   0.000E+00   7.040E-01   0.000E+00   0.000E+00   0.000E+00   0.000E+00   0.000E+00   0.000E+00   0.000E+00      2    36    37
    45          -1           0           2      0.0000      0.0000     -3.0000      0.3249   6.699E+00  -1.167E-01   0.000E+00   0.000E+00   0.000E+00           T           F   0.000E+00   0.000E+00   7.040E-01   0.000E+00   0.000E+00   0.000E+00   0.000E+00   0.000E+00   0.000E+00   0.000E+00      2    37    38
    46          -1           0           2      0.0000      0.0000     -2.0000      0.2686   6.582E+00  -1.167E-01   0.000E+00   0.000E+00   0.000E+00           T           F   0.000E+00   0.000E+00   7.040E-01   0.000E+00   0.000E+00   0.000E+00   0.000E+00   0.000E+00   0.000E+00   0.000E+00      2    38    39
    47          -1           0           2      0.0000      0.0000     -1.0000      0.2124   6.466E+00  -1.167E-01   0.000E+00   0.000E+00   0.000E+00           T           F   0.000E+00   0.000E+00   7.040E-01   0.000E+00   0.000E+00   0.000E+00   0.000E+00   0.000E+00   0.000E+00   0.000E+00      2    39    40
    48          -1           0           3    -28.1208      0.0000    -18.5000      0.9600   3.500E+00   0.000E+00   0.000E+00   0.000E+00   0.000E+00           T           F   0.000E+00   0.000E+00   2.050E+00   0.000E+00   0.000E+00   0.000E+00   0.000E+00   0.000E+00   0.000E+00   0.000E+00      2     3    41
    49          -1           0           3    -27.1415      0.0000    -18.5000      0.9200   3.500E+00   0.000E+00   0.000E+00   0.000E+00   0.000E+00           T           F   0.000E+00   0.000E+00   2.050E+00   0.000E+00   0.000E+00   0.000E+00   0.000E+00   0.000E+00   0.000E+00   0.000E+00      2    41    42
    50          -1           0           3    -26.1623      0.0000    -18.5000      0.8800   3.500E+00   0.000E+00   0.000E+00   0.000E+00   0.000E+00           T           F   0.000E+00   0.000E+00   2.050E+00   0.000E+00   0.000E+00   0.000E+00   0.000E+00   0.000E+00   0.000E+00   0.000E+00      2    42    43
    51          -1           0           3    -25.1830      0.0000    -18.5000      0.8400   3.500E+00   0.000E+00   0.000E+00   0.000E+00   0.000E+00           T           F   0.000E+00   0.000E+00   2.050E+00   0.000E+00   0.000E+00   0.000E+00   0.000E+00   0.000E+00   0.000E+00   0.000E+00      2    43    44
    52          -1           0           3    -24.2038      0.0000    -18.5000      0.8000   3.500E+00   0.000E+00   0.000E+00   0.000E+00   0.000E+00           T           F   0.000E+00   0.000E+00   2.050E+00   0.000E+00   0.000E+00   0.000E+00   0.000E+00   0.000E+00   0.000E+00   0.000E+00      2    44    45
    53          -1           0           3    -23.2245      0.0000    -18.5000      0.7600   3.500E+00   0.000E+00   0.000E+00   0.000E+00   0.000E+00           T           F   0.000E+00   0.000E+00   2.050E+00   0.000E+00   0.000E+00   0.000E+00   0.000E+00   0.000E+00   0.000E+00   0.000E+00      2    45    46
    54          -1           0           3    -22.2453      0.0000    -18.5000      0.7200   3.500E+00   0.000E+00   0.000E+00   0.000E+00   0.000E+00           T           F   0.000E+00   0.000E+00   2.050E+00   0.000E+00   0.000E+00   0.000E+00   0.000E+00   0.000E+00   0.000E+00   0.000E+00      2    46    47
    55          -1           0           3    -21.2660      0.0000    -18.5000      0.6800   3.500E+00   0.000E+00   0.000E+00   0.000E+00   0.000E+00           T           F   0.000E+00   0.000E+00   2.050E+00   0.000E+00   0.000E+00   0.000E+00   0.000E+00   0.000E+00   0.000E+00   0.000E+00      2    47    48
    56          -1           0           3    -20.2868      0.0000    -18.5000      0.6400   3.500E+00   0.000E+00   0.000E+00   0.000E+00   0.000E+00           T           F   0.000E+00   0.000E+00   2.050E+00   0.000E+00   0.000E+00   0.000E+00   0.000E+00   0.000E+00   0.000E+00   0.000E+00      2    48    49
    57          -1           0           3    -19.3075      0.0000    -18.5000      0.6000   3.500E+00   0.000E+00   0.000E+00   0.000E+00   0.000E+00           T           F   0.000E+00   0.000E+00   2.050E+00   0.000E+00   0.000E+00   0.000E+00   0.000E+00   0.000E+00   0.000E+00   0.000E+00      2    49    50
    58          -1           0           3    -18.3283      0.0000    -18.5000      0.5600   3.500E+00   0.000E+00   0.000E+00   0.000E+00   0.000E+00           T           F   0.000E+00   0.000E+00   2.050E+00   0.000E+00   0.000E+00   0.000E+00   0.000E+00   0.000E+00   0.000E+00   0.000E+00      2    50    51
    59          -1           0           3    -17.3490      0.0000    -18.5000      0.5200   3.500E+00   0.000E+00   0.000E+00   0.000E+00   0.000E+00           T           F   0.000E+00   0.000E+00   2.050E+00   0.000E+00   0.000E+00   0.000E+00   0.000E+00   0.000E+00   0.000E+00   0.000E+00      2    51    52
    60          -1           0           3    -16.3698      0.0000    -18.5000      0.4800   3.500E+00   0.000E+00   0.000E+00   0.000E+00   0.000E+00           T           F   0.000E+00   0.000E+00   2.050E+00   0.000E+00   0.000E+00   0.000E+00   0.000E+00   0.000E+00   0.000E+00   0.000E+00      2    52    53
    61          -1           0           3    -15.3905      0.0000    -18.5000      0.4400   3.500E+00   0.000E+00   0.000E+00   0.000E+00   0.000E+00           T           F   0.000E+00   0.000E+00   2.050E+00   0.000E+00   0.000E+00   0.000E+00   0.000E+00   0.000E+00   0.000E+00   0.000E+00      2    53    54
    62          -1           0           3    -14.4113      0.0000    -18.5000      0.4000   3.500E+00   0.000E+00   0.000E+00   0.000E+00   0.000E+00           T           F   0.000E+00   0.000E+00   2.050E+00   0.000E+00   0.000E+00   0.000E+00   0.000E+00   0.000E+00   0.000E+00   0.000E+00      2    54    55
    63          -1           0           3    -13.4320      0.0000    -18.5000      0.3600   3.500E+00   0.000E+00   0.000E+00   0.000E+00   0.000E+00           T           F   0.000E+00   0.000E+00   2.050E+00   0.000E+00   0.000E+00   0.000E+00   0.000E+00   0.000E+00   0.000E+00   0.000E+00      2    55    56
    64          -1           0           3    -12.4528      0.0000    -18.5000      0.3200   3.500E+00   0.000E+00   0.000E+00   0.000E+00   0.000E+00           T           F   0.000E+00   0.000E+00   2.050E+00   0.000E+00   0.000E+00   0.000E+00   0.000E+00   0.000E+00   0.000E+00   0.000E+00      2    56    57
    65          -1           0           3    -11.4735      0.0000    -18.5000      0.2800   3.500E+00   0.000E+00   0.000E+00   0.000E+00   0.000E+00           T           F   0.000E+00   0.000E+00   2.050E+00   0.000E+00   0.000E+00   0.000E+00   0.000E+00   0.000E+00   0.000E+00   0.000E+00      2    57    58
    66          -1           0           3    -10.4943      0.0000    -18.5000      0.2400   3.500E+00   0.000E+00   0.000E+00   0.000E+00   0.000E+00           T           F   0.000E+00   0.000E+00   2.050E+00   0.000E+00   0.000E+00   0.000E+00   0.000E+00   0.000E+00   0.000E+00   0.000E+00      2    58    59
    67          -1           0           3     -9.5150      0.0000    -18.5000      0.2000   3.500E+00   0.000E+00   0.000E+00   0.000E+00   0.000E+00           T           F   0.000E+00   0.000E+00   2.050E+00   0.000E+00   0.000E+00   0.000E+00   0.000E+00   0.000E+00   0.000E+00   0.000E+00      2    59    60
    68          -1           0           3     -8.5358      0.0000    -18.5000      0.1600   3.500E+00   0.000E+00   0.000E+00   0.000E+00   0.000E+00           T           F   0.000E+00   0.000E+00   2.050E+00   0.000E+00   0.000E+00   0.000E+00   0.000E+00   0.000E+00   0.000E+00   0.000E+00      2    60    61
    69          -1           0           3     -7.5565      0.0000    -18.5000      0.1200   3.500E+00   0.000E+00   0.000E+00   0.000E+00   0.000E+00           T           F   0.000E+00   0.000E+00   2.050E+00   0.000E+00   0.000E+00   0.000E+00   0.000E+00   0.000E+00   0.000E+00   0.000E+00      2    61    62
    70          -1           0           3     -6.5773      0.0000    -18.5000      0.0800   3.500E+00   0.000E+00   0.000E+00   0.000E+00   0.000E+00           T           F   0.000E+00   0.000E+00   2.050E+00   0.000E+00   0.000E+00   0.000E+00   0.000E+00   0.000E+00   0.000E+00   0.000E+00      2    62    63
    71          -1           0           3     -5.5980      0.0000    -18.5000      0.0400   3.500E+00   0.000E+00   0.000E+00   0.000E+00   0.000E+00           T           F   0.000E+00   0.000E+00   2.050E+00   0.000E+00   0.000E+00   0.000E+00   0.000E+00   0.000E+00   0.000E+00   0.000E+00      2    63    64
    72          -1           0           4    -37.0000      0.0000    -20.5714      0.1429   7.900E+00   0.000E+00   0.000E+00   0.000E+00   0.000E+00           T           F   0.000E+00   0.000E+00   7.060E-01   0.000E+00   0.000E+00   0.000E+00   0.000E+00   0.000E+00   0.000E+00   0.000E+00      2     4    65
    73          -1           0           4    -37.0000      0.0000    -19.6429      0.2857   7.900E+00   0.000E+00   0.000E+00   0.000E+00   0.000E+00           T           F   0.000E+00   0.000E+00   7.060E-01   0.000E+00   0.000E+00   0.000E+00   0.000E+00   0.000E+00   0.000E+00   0.000E+00      2    65    66
    74          -1           0           4    -37.0000      0.0000    -18.7143      0.4286   7.900E+00   0.000E+00   0.000E+00   0.000E+00   0.000E+00           T           F   0.000E+00   0.000E+00   7.060E-01   0.000E+00   0.000E+00   0.000E+00   0.000E+00   0.000E+00   0.000E+00   0.000E+00      2    66    67
    75          -1           0           4    -37.0000      0.0000    -17.7857      0.5714   7.900E+00   0.000E+00   0.000E+00   0.000E+00   0.000E+00           T           F   0.000E+00   0.000E+00   7.060E-01   0.000E+00   0.000E+00   0.000E+00   0.000E+00   0.000E+00   0.000E+00   0.000E+00      2    67    68
    76          -1           0           4    -37.0000      0.0000    -16.8571      0.7143   7.900E+00   0.000E+00   0.000E+00   0.000E+00   0.000E+00           T           F   0.000E+00   0.000E+00   7.060E-01   0.000E+00   0.000E+00   0.000E+00   0.000E+00   0.000E+00   0.000E+00   0.000E+00      2    68    69
    77          -1           0           4    -37.0000      0.0000    -15.9286      0.8571   7.900E+00   0.000E+00   0.000E+00   0.000E+00   0.000E+00           T           F   0.000E+00   0.000E+00   7.060E-01   0.000E+00   0.000E+00   0.000E+00   0.000E+00   0.000E+00   0.000E+00   0.000E+00      2    69    70
    78          -1           0           5    -37.0000      0.0000    -14.0000      0.0909   7.791E+00  -1.091E-01   0.000E+00   0.000E+00   0.000E+00           T           F   0.000E+00   0.000E+00   7.200E-01   0.000E+00   0.000E+00   0.000E+00   0.000E+00   0.000E+00   0.000E+00   0.000E+00      2     5    71
    79          -1           0           5    -37.0000      0.0000    -13.0000      0.1818   7.682E+00  -1.091E-01   0.000E+00   0.000E+00   0.000E+00           T           F   0.000E+00   0.000E+00   7.200E-01   0.000E+00   0.000E+00   0.000E+00   0.000E+00   0.000E+00   0.000E+00   0.000E+00      2    71    72
    80          -1           0           5    -37.0000      0.0000    -12.0000      0.2727   7.573E+00  -1.091E-01   0.000E+00   0.000E+00   0.000E+00           T           F   0.000E+00   0.000E+00   7.200E-01   0.000E+00   0.000E+00   0.000E+00   0.000E+00   0.000E+00   0.000E+00   0.000E+00      2    72    73
    81          -1           0           5    -37.0000      0.0000    -11.0000      0.3636   7.464E+00  -1.091E-01   0.000E+00   0.000E+00   0.000E+00           T           F   0.000E+00   0.000E+00   7.200E-01   0.000E+00   0.000E+00   0.000E+00   0.000E+00   0.000E+00   0.000E+00   0.000E+00      2    73    74
    82          -1           0           5    -37.0000      0.0000    -10.0000      0.4545   7.355E+00  -1.091E-01   0.000E+00   0.000E+00   0.000E+00           T           F   0.000E+00   0.000E+00   7.200E-01   0.000E+00   0.000E+00   0.000E+00   0.000E+00   0.000E+00   0.000E+00   0.000E+00      2    74    75
    83          -1           0           5    -37.0000      0.0000     -9.0000      0.5455   7.245E+00  -1.091E-01   0.000E+00   0.000E+00   0.000E+00           T           F   0.000E+00   0.000E+00   7.200E-01   0.000E+00   0.000E+00   0.000E+00   0.000E+00   0.000E+00   0.000E+00   0.000E+00      2    75    76
    84          -1           0           5    -37.0000      0.0000     -8.0000      0.6364   7.136E+00  -1.091E-01   0.000E+00   0.000E+00   0.000E+00           T           F   0.000E+00   0.000E+00   7.200E-01   0.000E+00   0.000E+00   0.000E+00   0.000E+00   0.000E+00   0.000E+00   0.000E+00      2    76    77
    85          -1           0           5    -37.0000      0.0000     -7.0000      0.7273   7.027E+00  -1.091E-01   0.000E+00   0.000E+00   0.000E+00           T           F   0.000E+00   0.000E+00   7.200E-01   0.000E+00   0.000E+00   0.000E+00   0.000E+00   0.000E+00   0.000E+00   0.000E+00      2    77    78
    86          -1           0           5    -37.0000      0.0000     -6.0000      0.8182   6.918E+00  -1.091E-01   0.000E+00   0.000E+00   0.000E+00           T           F   0.000E+00   0.000E+00   7.200E-01   0.000E+00   0.000E+00   0.000E+00   0.000E+00   0.000E+00   0.000E+00   0.000E+00      2    78    79
    87          -1           0           5    -37.0000      0.0000     -5.0000      0.9091   6.809E+00  -1.091E-01   0.000E+00   0.000E+00   0.000E+00           T           F   0.000E+00   0.000E+00   7.200E-01   0.000E+00   0.000E+00   0.000E+00   0.000E+00   0.000E+00   0.000E+00   0.000E+00      2    79    80
    88          -1           0           6    -37.0000      0.0000     -3.0000      0.0741   6.700E+00   0.000E+00   0.000E+00   0.000E+00   0.000E+00           T           F   0.000E+00   0.000E+00   7.200E-01   0.000E+00   0.000E+00   0.000E+00   0.000E+00   0.000E+00   0.000E+00   0.000E+00      2     6    81
    89          -1           0           6    -37.0000      0.0000     -2.0000      0.1481   6.700E+00   0.000E+00   0.000E+00   0.000E+00   0.000E+00           T           F   0.000E+00   0.000E+00   7.200E-01   0.000E+00   0.000E+00   0.000E+00   0.000E+00   0.000E+00   0.000E+00   0.000E+00      2    81    82
    90          -1           0           6    -37.0000      0.0000     -1.0000      0.2222   6.700E+00   0.000E+00   0.000E+00   0.000E+00   0.000E+00           T           F   0.000E+00   0.000E+00   7.200E-01   0.000E+00   0.000E+00   0.000E+00   0.000E+00   0.000E+00   0.000E+00   0.000E+00      2    82    83
    91          -1           0           7      2.7990      4.8481    -18.5000      0.0400   3.500E+00   0.000E+00   0.000E+00   0.000E+00   0.000E+00           T           F   0.000E+00   0.000E+00   2.050E+00   0.000E+00   0.000E+00   0.000E+00   0.000E+00   0.000E+00   0.000E+00   0.000E+00      2     7    84
    92          -1           0           7      3.2886      5.6961    -18.5000      0.0800   3.500E+00   0.000E+00   0.000E+00   0.000E+00   0.000E+00           T           F   0.000E+00   0.000E+00   2.050E+00   0.000E+00   0.000E+00   0.000E+00   0.000E+00   0.000E+00   0.000E+00   0.000E+00      2    84    85
    93          -1           0           7      3.7783      6.5442    -18.5000      0.1200   3.500E+00   0.000E+00   0.000E+00   0.000E+00   0.000E+00           T           F   0.000E+00   0.000E+00   2.050E+00   0.000E+00   0.000E+00   0.000E+00   0.000E+00   0.000E+00   0.000E+00   0.000E+00      2    85    86
    94          -1           0           7      4.2679      7.3922    -18.5000      0.1600   3.500E+00   0.000E+00   0.000E+00   0.000E+00   0.000E+00           T           F   0.000E+00   0.000E+00   2.050E+00   0.000E+00   0.000E+00   0.000E+00   0.000E+00   0.000E+00   0.000E+00   0.000E+00      2    86    87
    95          -1           0           7      4.7575      8.2403    -18.5000      0.2000   3.500E+00   0.000E+00   0.000E+00   0.000E+00   0.000E+00           T           F   0.000E+00   0.000E+00   2.050E+00   0.000E+00   0.000E+00   0.000E+00   0.000E+00   0.000E+00   0.000E+00   0.000E+00      2    87    88
    96          -1           0           7      5.2471      9.0883    -18.5000      0.2400   3.500E+00   0.000E+00   0.000E+00   0.000E+00   0.000E+00           T           F   0.000E+00   0.000E+00   2.050E+00   0.000E+00   0.000E+00   0.000E+00   0.000E+00   0.000E+00   0.000E+00   0.000E+00      2    88    89
    97          -1           0           7      5.7368      9.9364    -18.5000      0.2800   3.500E+00   0.000E+00   0.000E+00   0.000E+00   0.000E+00           T           F   0.000E+00   0.000E+00   2.050E+00   0.000E+00   0.000E+00   0.000E+00   0.000E+00   0.000E+00   0.000E+00   0.000E+00      2    89    90
    98          -1           0           7      6.2264     10.7844    -18.5000      0.3200   3.500E+00   0.000E+00   0.000E+00   0.000E+00   0.000E+00           T           F   0.000E+00   0.000E+00   2.050E+00   0.000E+00   0.000E+00   0.000E+00   0.000E+00   0.000E+00   0.000E+00   0.000E+00      2    90    91
    99          -1           0           7      6.7160     11.6325    -18.5000      0.3600   3.500E+00   0.000E+00   0.000E+00   0.000E+00   0.000E+00           T           F   0.000E+00   0.000E+00   2.050E+00   0.000E+00   0.000E+00   0.000E+00   0.000E+00   0.000E+00   0.000E+00   0.000E+00      2    91    92
   100          -1           0           7      7.2056     12.4805    -18.5000      0.4000   3.500E+00   0.000E+00   0.000E+00   0.000E+00   0.000E+00           T           F   0.000E+00   0.000E+00   2.050E+00   0.000E+00   0.000E+00   0.000E+00   0.000E+00   0.000E+00   0.000E+00   0.000E+00      2    92    93
   101          -1           0           7      7.6953     13.3286    -18.5000      0.4400   3.500E+00   0.000E+00   0.000E+00   0.000E+00   0.000E+00           T           F   0.000E+00   0.000E+00   2.050E+00   0.000E+00   0.000E+00   0.000E+00   0.000E+00   0.000E+00   0.000E+00   0.000E+00      2    93    94
   102          -1           0           7      8.1849     14.1766    -18.5000      0.4800   3.500E+00   0.000E+00   0.000E+00   0.000E+00   0.000E+00           T           F   0.000E+00   0.000E+00   2.050E+00   0.000E+00   0.000E+00   0.000E+00   0.000E+00   0.000E+00   0.000E+00   0.000E+00      2    94    95
   103          -1           0           7      8.6745     15.0247    -18.5000      0.5200   3.500E+00   0.000E+00   0.000E+00   0.000E+00   0.000E+00           T           F   0.000E+00   0.000E+00   2.050E+00   0.000E+00   0.000E+00   0.000E+00   0.000E+00   0.000E+00   0.000E+00   0.000E+00      2    95    96
   104          -1           0           7      9.1641     15.8727    -18.5000      0.5600   3.500E+00   0.000E+00   0.000E+00   0.000E+00   0.000E+00           T           F   0.000E+00   0.000E+00   2.050E+00   0.000E+00   0.000E+00   0.000E+00   0.000E+00   0.000E+00   0.000E+00   0.000E+00      2    96    97
   105          -1           0           7      9.6538     16.7208    -18.5000      0.6000   3.500E+00   0.000E+00   0.000E+00   0.000E+00   0.000E+00           T           F   0.000E+00   0.000E+00   2.050E+00   0.000E+00   0.000E+00   0.000E+00   0.000E+00   0.000E+00   0.000E+00   0.000E+00      2    97    98
   106          -1           0           7     10.1434     17.5688    -18.5000      0.6400   3.500E+00   0.000E+00   0.000E+00   0.000E+00   0.000E+00           T           F   0.000E+00   0.000E+00   2.050E+00   0.000E+00   0.000E+00   0.000E+00   0.000E+00   0.000E+00   0.000E+00   0.000E+00      2    98    99
   107          -1           0           7     10.6330     18.4169    -18.5000      0.6800   3.500E+00   0.000E+00   0.000E+00   0.000E+00   0.000E+00           T           F   0.000E+00   0.000E+00   2.050E+00   0.000E+00   0.000E+00   0.000E+00   0.000E+00   0.000E+00   0.000E+00   0.000E+00      2    99   100
   108          -1           0           7     11.1226     19.2649    -18.5000      0.7200   3.500E+00   0.000E+00   0.000E+00   0.000E+00   0.000E+00           T           F   0.000E+00   0.000E+00   2.050E+00   0.000E+00   0.000E+00   0.000E+00   0.000E+00   0.000E+00   0.000E+00   0.000E+00      2   100   101
   109          -1           0           7     11.6123     20.1130    -18.5000      0.7600   3.500E+00   0.000E+00   0.000E+00   0.000E+00   0.000E+00           T           F   0.000E+00   0.000E+00   2.050E+00   0.000E+00   0.000E+00   0.000E+00   0.000E+00   0.000E+00   0.000E+00   0.000E+00      2   101   102
   110          -1           0           7     12.1019     20.9610    -18.5000      0.8000   3.500E+00   0.000E+00   0.000E+00   0.000E+00   0.000E+00           T           F   0.000E+00   0.000E+00   2.050E+00   0.000E+00   0.000E+00   0.000E+00   0.000E+00   0.000E+00   0.000E+00   0.000E+00      2   102   103
   111          -1           0           7     12.5915     21.8091    -18.5000      0.8400   3.500E+00   0.000E+00   0.000E+00   0.000E+00   0.000E+00           T           F   0.000E+00   0.000E+00   2.050E+00   0.000E+00   0.000E+00   0.000E+00   0.000E+00   0.000E+00   0.000E+00   0.000E+00      2   103   104
   112          -1           0           7     13.0811     22.6571    -18.5000      0.8800   3.500E+00   0.000E+00   0.000E+00   0.000E+00   0.000E+00           T           F   0.000E+00   0.000E+00   2.050E+00   0.000E+00   0.000E+00   0.000E+00   0.000E+00   0.000E+00   0.000E+00   0.000E+00      2   104   105
   113          -1           0           7     13.5708     23.5052    -18.5000      0.9200   3.500E+00   0.000E+00   0.000E+00   0.000E+00   0.000E+00           T           F   0.000E+00   0.000E+00   2.050E+00   0.000E+00   0.000E+00   0.000E+00   0.000E+00   0.000E+00   0.000E+00   0.000E+00      2   105   106
   114          -1           0           7     14.0604     24.3532    -18.5000      0.9600   3.500E+00   0.000E+00   0.000E+00   0.000E+00   0.000E+00           T           F   0.000E+00   0.000E+00   2.050E+00   0.000E+00   0.000E+00   0.000E+00   0.000E+00   0.000E+00   0.000E+00   0.000E+00      2   106   107
   115          -1           0           8     18.5000     32.0429    -20.5714      0.1429   7.900E+00   0.000E+00   0.000E+00   0.000E+00   0.000E+00           T           F   0.000E+00   0.000E+00   7.060E-01   0.000E+00   0.000E+00   0.000E+00   0.000E+00   0.000E+00   0.000E+00   0.000E+00      2     8   108
   116          -1           0           8     18.5000     32.0429    -19.6429      0.2857   7.900E+00   0.000E+00   0.000E+00   0.000E+00   0.000E+00           T           F   0.000E+00   0.000E+00   7.060E-01   0.000E+00   0.000E+00   0.000E+00   0.000E+00   0.000E+00   0.000E+00   0.000E+00      2   108   109
   117          -1           0           8     18.5000     32.0429    -18.7143      0.4286   7.900E+00   0.000E+00   0.000E+00   0.000E+00   0.000E+00           T           F   0.000E+00   0.000E+00   7.060E-01   0.000E+00   0.000E+00   0.000E+00   0.000E+00   0.000E+00   0.000E+00   0.000E+00      2   109   110
   118          -1           0           8     18.5000     32.0429    -17.7857      0.5714   7.900E+00   0.000E+00   0.000E+00   0.000E+00   0.000E+00           T           F   0.000E+00   0.000E+00   7.060E-01   0.000E+00   0.000E+00   0.000E+00   0.000E+00   0.000E+00   0.000E+00   0.000E+00      2   110   111
   119          -1           0           8     18.5000     32.0429    -16.8571      0.7143   7.900E+00   0.000E+00   0.000E+00   0.000E+00   0.000E+00           T           F   0.000E+00   0.000E+00   7.060E-01   0.000E+00   0.000E+00   0.000E+00   0.000E+00   0.000E+00   0.000E+00   0.000E+00      2   111   112
   120          -1           0           8     18.5000     32.0429    -15.9286      0.8571   7.900E+00   0.000E+00   0.000E+00   0.000E+00   0.000E+00           T           F   0.000E+00   0.000E+00   7.060E-01   0.000E+00   0.000E+00   0.000E+00   0.000E+00   0.000E+00   0.000E+00   0.000E+00      2   112   113
   121          -1           0           9     18.5000     32.0429    -14.0000      0.0909   7.791E+00  -1.091E-01   0.000E+00   0.000E+00   0.000E+00           T           F   0.000E+00   0.000E+00   7.200E-01   0.000E+00   0.000E+00   0.000E+00   0.000E+00   0.000E+00   0.000E+00   0.000E+00      2     9   114
   122          -1           0           9     18.5000     32.0429    -13.0000      0.1818   7.682E+00  -1.091E-01   0.000E+00   0.000E+00   0.000E+00           T           F   0.000E+00   0.000E+00   7.200E-01   0.000E+00   0.000E+00   0.000E+00   0.000E+00   0.000E+00   0.000E+00   0.000E+00      2   114   115
   123          -1           0           9     18.5000     32.0429    -12.0000      0.2727   7.573E+00  -1.091E-01   0.000E+00   0.000E+00   0.000E+00           T           F   0.000E+00   0.000E+00   7.200E-01   0.000E+00   0.000E+00   0.000E+00   0.000E+00   0.000E+00   0.000E+00   0.000E+00      2   115   116
   124          -1           0           9     18.5000     32.0429    -11.0000      0.3636   7.464E+00  -1.091E-01   0.000E+00   0.000E+00   0.000E+00           T           F   0.000E+00   0.000E+00   7.200E-01   0.000E+00   0.000E+00   0.000E+00   0.000E+00   0.000E+00   0.000E+00   0.000E+00      2   116   117
   125          -1           0           9     18.5000     32.0429    -10.0000      0.4545   7.355E+00  -1.091E-01   0.000E+00   0.000E+00   0.000E+00           T           F   0.000E+00   0.000E+00   7.200E-01   0.000E+00   0.000E+00   0.000E+00   0.000E+00   0.000E+00   0.000E+00   0.000E+00      2   117   118
   126          -1           0           9     18.5000     32.0429     -9.0000      0.5455   7.245E+00  -1.091E-01   0.000E+00   0.000E+00   0.000E+00           T           F   0.000E+00   0.000E+00   7.200E-01   0.000E+00   0.000E+00   0.000E+00   0.000E+00   0.000E+00   0.000E+00   0.000E+00      2   118   119
   127          -1           0           9     18.5000     32.0429     -8.0000      0.6364   7.136E+00  -1.091E-01   0.000E+00   0.000E+00   0.000E+00           T           F   0.000E+00   0.000E+00   7.200E-01   0.000E+00   0.000E+00   0.000E+00   0.000E+00   0.000E+00   0.000E+00   0.000E+00      2   119   120
   128          -1           0           9     18.5000     32.0429     -7.0000      0.7273   7.027E+00  -1.091E-01   0.000E+00   0.000E+00   0.000E+00           T           F   0.000E+00   0.000E+00   7.200E-01   0.000E+00   0.000E+00   0.000E+00   0.000E+00   0.000E+00   0.000E+00   0.000E+00      2   120   121
   129          -1           0           9     18.5000     32.0429     -6.0000      0.8182   6.918E+00  -1.091E-01   0.000E+00   0.000E+00   0.000E+00           T           F   0.000E+00   0.000E+00   7.200E-01   0.000E+00   0.000E+00   0.000E+00   0.000E+00   0.000E+00   0.000E+00   0.000E+00      2   121   122
   130          -1           0           9     18.5000     32.0429     -5.0000      0.9091   6.809E+00  -1.091E-01   0.000E+00   0.000E+00   0.000E+00           T           F   0.000E+00   0.000E+00   7.200E-01   0.000E+00   0.000E+00   0.000E+00   0.000E+00   0.000E+00   0.000E+00   0.000E+00      2   122   123
   131          -1           0          10     18.5000     32.0429     -3.0000      0.0741   6.700E+00   0.000E+00   0.000E+00   0.000E+00   0.000E+00           T           F   0.000E+00   0.000E+00   7.200E-01   0.000E+00   0.000E+00   0.000E+00   0.000E+00   0.000E+00   0.000E+00   0.000E+00      2    10   124
   132          -1           0          10     18.5000     32.0429     -2.0000      0.1481   6.700E+00   0.000E+00   0.000E+00   0.000E+00   0.000E+00           T           F   0.000E+00   0.000E+00   7.200E-01   0.000E+00   0.000E+00   0.000E+00   0.000E+00   0.000E+00   0.000E+00   0.000E+00      2   124   125
   133          -1           0          10     18.5000     32.0429     -1.0000      0.2222   6.700E+00   0.000E+00   0.000E+00   0.000E+00   0.000E+00           T           F   0.000E+00   0.000E+00   7.200E-01   0.000E+00   0.000E+00   0.000E+00   0.000E+00   0.000E+00   0.000E+00   0.000E+00      2   125   126
   134          -1           0          11      2.7990     -4.8481    -18.5000      0.0400   3.500E+00   0.000E+00   0.000E+00   0.000E+00   0.000E+00           T           F   0.000E+00   0.000E+00   2.050E+00   0.000E+00   0.000E+00   0.000E+00   0.000E+00   0.000E+00   0.000E+00   0.000E+00      2    11   127
   135          -1           0          11      3.2886     -5.6961    -18.5000      0.0800   3.500E+00   0.000E+00   0.000E+00   0.000E+00   0.000E+00           T           F   0.000E+00   0.000E+00   2.050E+00   0.000E+00   0.000E+00   0.000E+00   0.000E+00   0.000E+00   0.000E+00   0.000E+00      2   127   128
   136          -1           0          11      3.7783     -6.5442    -18.5000      0.1200   3.500E+00   0.000E+00   0.000E+00   0.000E+00   0.000E+00           T           F   0.000E+00   0.000E+00   2.050E+00   0.000E+00   0.000E+00   0.000E+00   0.000E+00   0.000E+00   0.000E+00   0.000E+00      2   128   129
   137          -1           0          11      4.2679     -7.3922    -18.5000      0.1600   3.500E+00   0.000E+00   0.000E+00   0.000E+00   0.000E+00           T           F   0.000E+00   0.000E+00   2.050E+00   0.000E+00   0.000E+00   0.000E+00   0.000E+00   0.000E+00   0.000E+00   0.000E+00      2   129   130
   138          -1           0          11      4.7575     -8.2403    -18.5000      0.2000   3.500E+00   0.000E+00   0.000E+00   0.000E+00   0.000E+00           T           F   0.000E+00   0.000E+00   2.050E+00   0.000E+00   0.000E+00   0.000E+00   0.000E+00   0.000E+00   0.000E+00   0.000E+00      2   130   131
   139          -1           0          11      5.2471     -9.0883    -18.5000      0.2400   3.500E+00   0.000E+00   0.000E+00   0.000E+00   0.000E+00           T           F   0.000E+00   0.000E+00   2.050E+00   0.000E+00   0.000E+00   0.000E+00   0.000E+00   0.000E+00   0.000E+00   0.000E+00      2   131   132
   140          -1           0          11      5.7368     -9.9364    -18.5000      0.2800   3.500E+00   0.000E+00   0.000E+00   0.000E+00   0.000E+00           T           F   0.000E+00   0.000E+00   2.050E+00   0.000E+00   0.000E+00   0.000E+00   0.000E+00   0.000E+00   0.000E+00   0.000E+00      2   132   133
   141          -1           0          11      6.2264    -10.7844    -18.5000      0.3200   3.500E+00   0.000E+00   0.000E+00   0.000E+00   0.000E+00           T           F   0.000E+00   0.000E+00   2.050E+00   0.000E+00   0.000E+00   0.000E+00   0.000E+00   0.000E+00   0.000E+00   0.000E+00      2   133   134
   142          -1           0          11      6.7160    -11.6325    -18.5000      0.3600   3.500E+00   0.000E+00   0.000E+00   0.000E+00   0.000E+00           T           F   0.000E+00   0.000E+00   2.050E+00   0.000E+00   0.000E+00   0.000E+00   0.000E+00   0.000E+00   0.000E+00   0.000E+00      2   134   135
   143          -1           0          11      7.2056    -12.4805    -18.5000      0.4000   3.500E+00   0.000E+00   0.000E+00   0.000E+00   0.000E+00           T           F   0.000E+00   0.000E+00   2.050E+00   0.000E+00   0.000E+00   0.000E+00   0.000E+00   0.000E+00   0.000E+00   0.000E+00      2   135   136
   144          -1           0          11      7.6953    -13.3286    -18.5000      0.4400   3.500E+00   0.000E+00   0.000E+00   0.000E+00   0.000E+00           T           F   0.000E+00   0.000E+00   2.050E+00   0.000E+00   0.000E+00   0.000E+00   0.000E+00   0.000E+00   0.000E+00   0.000E+00      2   136   137
   145          -1           0          11      8.1849    -14.1766    -18.5000      0.4800   3.500E+00   0.000E+00   0.000E+00   0.000E+00   0.000E+00           T           F   0.000E+00   0.000E+00   2.050E+00   0.000E+00   0.000E+00   0.000E+00   0.000E+00   0.000E+00   0.000E+00   0.000E+00      2   137   138
   146          -1           0          11      8.6745    -15.0247    -18.5000      0.5200   3.500E+00   0.000E+00   0.000E+00   0.000E+00   0.000E+00           T           F   0.000E+00   0.000E+00   2.050E+00   0.000E+00   0.000E+00   0.000E+00   0.000E+00   0.000E+00   0.000E+00   0.000E+00      2   138   139
   147          -1           0          11      9.1641    -15.8727    -18.5000      0.5600   3.500E+00   0.000E+00   0.000E+00   0.000E+00   0.000E+00           T           F   0.000E+00   0.000E+00   2.050E+00   0.000E+00   0.000E+00   0.000E+00   0.000E+00   0.000E+00   0.000E+00   0.000E+00      2   139   140
   148          -1           0          11      9.6538    -16.7208    -18.5000      0.6000   3.500E+00   0.000E+00   0.000E+00   0.000E+00   0.000E+00           T           F   0.000E+00   0.000E+00   2.050E+00   0.000E+00   0.000E+00   0.000E+00   0.000E+00   0.000E+00   0.000E+00   0.000E+00      2   140   141
   149          -1           0          11     10.1434    -17.5688    -18.5000      0.6400   3.500E+00   0.000E+00   0.000E+00   0.000E+00   0.000E+00           T           F   0.000E+00   0.000E+00   2.050E+00   0.000E+00   0.000E+00   0.000E+00   0.000E+00   0.000E+00   0.000E+00   0.000E+00      2   141   142
   150          -1           0          11     10.6330    -18.4169    -18.5000      0.6800   3.500E+00   0.000E+00   0.000E+00   0.000E+00   0.000E+00           T           F   0.000E+00   0.000E+00   2.050E+00   0.000E+00   0.000E+00   0.000E+00   0.000E+00   0.000E+00   0.000E+00   0.000E+00      2   142   143
   151          -1           0          11     11.1226    -19.2649    -18.5000      0.7200   3.500E+00   0.000E+00   0.000E+00   0.000E+00   0.000E+00           T           F   0.000E+00   0.000E+00   2.050E+00   0.000E+00   0.000E+00   0.000E+00   0.000E+00   0.000E+00   0.000E+00   0.000E+00      2   143   144
   152          -1           0          11     11.6123    -20.1130    -18.5000      0.7600   3.500E+00   0.000E+00   0.000E+00   0.000E+00   0.000E+00           T           F   0.000E+00   0.000E+00   2.050E+00   0.000E+00   0.000E+00   0.000E+00   0.000E+00   0.000E+00   0.000E+00   0.000E+00      2   144   145
   153          -1           0          11     12.1019    -20.9610    -18.5000      0.8000   3.500E+00   0.000E+00   0.000E+00   0.000E+00   0.000E+00           T           F   0.000E+00   0.000E+00   2.050E+00   0.000E+00   0.000E+00   0.000E+00   0.000E+00   0.000E+00   0.000E+00   0.000E+00      2   145   146
   154          -1           0          11     12.5915    -21.8091    -18.5000      0.8400   3.500E+00   0.000E+00   0.000E+00   0.000E+00   0.000E+00           T           F   0.000E+00   0.000E+00   2.050E+00   0.000E+00   0.000E+00   0.000E+00   0.000E+00   0.000E+00   0.000E+00   0.000E+00      2   146   147
   155          -1           0          11     13.0811    -22.6571    -18.5000      0.8800   3.500E+00   0.000E+00   0.000E+00   0.000E+00   0.000E+00           T           F   0.000E+00   0.000E+00   2.050E+00   0.000E+00   0.000E+00   0.000E+00   0.000E+00   0.000E+00   0.000E+00   0.000E+00      2   147   148
   156          -1           0          11     13.5708    -23.5052    -18.5000      0.9200   3.500E+00   0.000E+00   0.000E+00   0.000E+00   0.000E+00           T           F   0.000E+00   0.000E+00   2.050E+00   0.000E+00   0.000E+00   0.000E+00   0.000E+00   0.000E+00   0.000E+00   0.000E+00      2   148   149
   157          -1           0          11     14.0604    -24.3532    -18.5000      0.9600   3.500E+00   0.000E+00   0.000E+00   0.000E+00   0.000E+00           T           F   0.000E+00   0.000E+00   2.050E+00   0.000E+00   0.000E+00   0.000E+00   0.000E+00   0.000E+00   0.000E+00   0.000E+00      2   149   150
   158          -1           0          12     18.5000    -32.0429    -20.5714      0.1429   7.900E+00   0.000E+00   0.000E+00   0.000E+00   0.000E+00           T           F   0.000E+00   0.000E+00   7.060E-01   0.000E+00   0.000E+00   0.000E+00   0.000E+00   0.000E+00   0.000E+00   0.000E+00      2    12   151
   159          -1           0          12     18.5000    -32.0429    -19.6429      0.2857   7.900E+00   0.000E+00   0.000E+00   0.000E+00   0.000E+00           T           F   0.000E+00   0.000E+00   7.060E-01   0.000E+00   0.000E+00   0.000E+00   0.000E+00   0.000E+00   0.000E+00   0.000E+00      2   151   152
   160          -1           0          12     18.5000    -32.0429    -18.7143      0.4286   7.900E+00   0.000E+00   0.000E+00   0.000E+00   0.000E+00           T           F   0.000E+00   0.000E+00   7.060E-01   0.000E+00   0.000E+00   0.000E+00   0.000E+00   0.000E+00   0.000E+00   0.000E+00      2   152   153
   161          -1           0          12     18.5000    -32.0429    -17.7857      0.5714   7.900E+00   0.000E+00   0.000E+00   0.000E+00   0.000E+00           T           F   0.000E+00   0.000E+00   7.060E-01   0.000E+00   0.000E+00   0.000E+00   0.000E+00   0.000E+00   0.000E+00   0.000E+00      2   153   154
   162          -1           0          12     18.5000    -32.0429    -16.8571      0.7143   7.900E+00   0.000E+00   0.000E+00   0.000E+00   0.000E+00           T           F   0.000E+00   0.000E+00   7.060E-01   0.000E+00   0.000E+00   0.000E+00   0.000E+00   0.000E+00   0.000E+00   0.000E+00      2   154   155
   163          -1           0          12     18.5000    -32.0429    -15.9286      0.8571   7.900E+00   0.000E+00   0.000E+00   0.000E+00   0.000E+00           T           F   0.000E+00   0.000E+00   7.060E-01   0.000E+00   0.000E+00   0.000E+00   0.000E+00   0.000E+00   0.000E+00   0.000E+00      2   155   156
   164          -1           0          13     18.5000    -32.0429    -14.0000      0.0909   7.791E+00  -1.091E-01   0.000E+00   0.000E+00   0.000E+00           T           F   0.000E+00   0.000E+00   7.200E-01   0.000E+00   0.000E+00   0.000E+00   0.000E+00   0.000E+00   0.000E+00   0.000E+00      2    13   157
   165          -1           0          13     18.5000    -32.0429    -13.0000      0.1818   7.682E+00  -1.091E-01   0.000E+00   0.000E+00   0.000E+00           T           F   0.000E+00   0.000E+00   7.200E-01   0.000E+00   0.000E+00   0.000E+00   0.000E+00   0.000E+00   0.000E+00   0.000E+00      2   157   158
   166          -1           0          13     18.5000    -32.0429    -12.0000      0.2727   7.573E+00  -1.091E-01   0.000E+00   0.000E+00   0.000E+00           T           F   0.000E+00   0.000E+00   7.200E-01   0.000E+00   0.000E+00   0.000E+00   0.000E+00   0.000E+00   0.000E+00   0.000E+00      2   158   159
   167          -1           0          13     18.5000    -32.0429    -11.0000      0.3636   7.464E+00  -1.091E-01   0.000E+00   0.000E+00   0.000E+00           T           F   0.000E+00   0.000E+00   7.200E-01   0.000E+00   0.000E+00   0.000E+00   0.000E+00   0.000E+00   0.000E+00   0.000E+00      2   159   160
   168          -1           0          13     18.5000    -32.0429    -10.0000      0.4545   7.355E+00  -1.091E-01   0.000E+00   0.000E+00   0.000E+00           T           F   0.000E+00   0.000E+00   7.200E-01   0.000E+00   0.000E+00   0.000E+00   0.000E+00   0.000E+00   0.000E+00   0.000E+00      2   160   161
   169          -1           0          13     18.5000    -32.0429     -9.0000      0.5455   7.245E+00  -1.091E-01   0.000E+00   0.000E+00   0.000E+00           T           F   0.000E+00   0.000E+00   7.200E-01   0.000E+00   0.000E+00   0.000E+00   0.000E+00   0.000E+00   0.000E+00   0.000E+00      2   161   162
   170          -1           0          13     18.5000    -32.0429     -8.0000      0.6364   7.136E+00  -1.091E-01   0.000E+00   0.000E+00   0.000E+00           T           F   0.000E+00   0.000E+00   7.200E-01   0.000E+00   0.000E+00   0.000E+00   0.000E+00   0.000E+00   0.000E+00   0.000E+00      2   162   163
   171          -1           0          13     18.5000    -32.0429     -7.0000      0.7273   7.027E+00  -1.091E-01   0.000E+00   0.000E+00   0.000E+00           T           F   0.000E+00   0.000E+00   7.200E-01   0.000E+00   0.000E+00   0.000E+00   0.000E+00   0.000E+00   0.000E+00   0.000E+00      2   163   164
   172          -1           0          13     18.5000    -32.0429     -6.0000      0.8182   6.918E+00  -1.091E-01   0.000E+00   0.000E+00   0.000E+00           T           F   0.000E+00   0.000E+00   7.200E-01   0.000E+00   0.000E+00   0.000E+00   0.000E+00   0.000E+00   0.000E+00   0.000E+00      2   164   165
   173          -1           0          13     18.5000    -32.0429     -5.0000      0.9091   6.809E+00  -1.091E-01   0.000E+00   0.000E+00   0.000E+00           T           F   0.000E+00   0.000E+00   7.200E-01   0.000E+00   0.000E+00   0.000E+00   0.000E+00   0.000E+00   0.000E+00   0.000E+00      2   165   166
   174          -1           0          14     18.5000    -32.0429     -3.0000      0.0741   6.700E+00   0.000E+00   0.000E+00   0.000E+00   0.000E+00           T           F   0.000E+00   0.000E+00   7.200E-01   0.000E+00   0.000E+00   0.000E+00   0.000E+00   0.000E+00   0.000E+00   0.000E+00      2    14   167
   175          -1           0          14     18.5000    -32.0429     -2.0000      0.1481   6.700E+00   0.000E+00   0.000E+00   0.000E+00   0.000E+00           T           F   0.000E+00   0.000E+00   7.200E-01   0.000E+00   0.000E+00   0.000E+00   0.000E+00   0.000E+00   0.000E+00   0.000E+00      2   167   168
   176          -1           0          14     18.5000    -32.0429     -1.0000      0.2222   6.700E+00   0.000E+00   0.000E+00   0.000E+00   0.000E+00           T           F   0.000E+00   0.000E+00   7.200E-01   0.000E+00   0.000E+00   0.000E+00   0.000E+00   0.000E+00   0.000E+00   0.000E+00      2   168   169
   177          -1           0           2      0.0000      0.0000      0.9250      0.1041   6.241E+00  -1.167E-01   0.000E+00   0.000E+00   0.000E+00           T           F   0.000E+00   0.000E+00   7.040E-01   0.000E+00   0.000E+00   0.000E+00   0.000E+00   0.000E+00   0.000E+00   0.000E+00      2    15   170
   178          -1           0           2      0.0000      0.0000      1.8500      0.0520   6.133E+00  -1.167E-01   0.000E+00   0.000E+00   0.000E+00           T           F   0.000E+00   0.000E+00   7.040E-01   0.000E+00   0.000E+00   0.000E+00   0.000E+00   0.000E+00   0.000E+00   0.000E+00      2   170   171
   179          -1           0           6    -37.0000      0.0000      0.9500      0.3667   6.700E+00   0.000E+00   0.000E+00   0.000E+00   0.000E+00           T           F   0.000E+00   0.000E+00   7.200E-01   0.000E+00   0.000E+00   0.000E+00   0.000E+00   0.000E+00   0.000E+00   0.000E+00      2    16   172
   180          -1           0           6    -37.0000      0.0000      1.9000      0.4370   6.700E+00   0.000E+00   0.000E+00   0.000E+00   0.000E+00           T           F   0.000E+00   0.000E+00   7.200E-01   0.000E+00   0.000E+00   0.000E+00   0.000E+00   0.000E+00   0.000E+00   0.000E+00      2   172   173
   181          -1           0           6    -37.0000      0.0000      2.8500      0.5074   6.700E+00   0.000E+00   0.000E+00   0.000E+00   0.000E+00           T           F   0.000E+00   0.000E+00   7.200E-01   0.000E+00   0.000E+00   0.000E+00   0.000E+00   0.000E+00   0.000E+00   0.000E+00      2   173   174
   182          -1           0           6    -37.0000      0.0000      3.8000      0.5778   6.700E+00   0.000E+00   0.000E+00   0.000E+00   0.000E+00           T           F   0.000E+00   0.000E+00   7.200E-01   0.000E+00   0.000E+00   0.000E+00   0.000E+00   0.000E+00   0.000E+00   0.000E+00      2   174   175
   183          -1           0           6    -37.0000      0.0000      4.7500      0.6481   6.700E+00   0.000E+00   0.000E+00   0.000E+00   0.000E+00           T           F   0.000E+00   0.000E+00   7.200E-01   0.000E+00   0.000E+00   0.000E+00   0.000E+00   0.000E+00   0.000E+00   0.000E+00      2   175   176
   184          -1           0           6    -37.0000      0.0000      5.7000      0.7185   6.700E+00   0.000E+00   0.000E+00   0.000E+00   0.000E+00           T           F   0.000E+00   0.000E+00   7.200E-01   0.000E+00   0.000E+00   0.000E+00   0.000E+00   0.000E+00   0.000E+00   0.000E+00      2   176   177
   185          -1           0           6    -37.0000      0.0000      6.6500      0.7889   6.700E+00   0.000E+00   0.000E+00   0.000E+00   0.000E+00           T           F   0.000E+00   0.000E+00   7.200E-01   0.000E+00   0.000E+00   0.000E+00   0.000E+00   0.000E+00   0.000E+00   0.000E+00      2   177   178
   186          -1           0           6    -37.0000      0.0000      7.6000      0.8593   6.700E+00   0.000E+00   0.000E+00   0.000E+00   0.000E+00           T           F   0.000E+00   0.000E+00   7.200E-01   0.000E+00   0.000E+00   0.000E+00   0.000E+00   0.000E+00   0.000E+00   0.000E+00      2   178   179
   187          -1           0           6    -37.0000      0.0000      8.5500      0.9296   6.700E+00   0.000E+00   0.000E+00   0.000E+00   0.000E+00           T           F   0.000E+00   0.000E+00   7.200E-01   0.000E+00   0.000E+00   0.000E+00   0.000E+00   0.000E+00   0.000E+00   0.000E+00      2   179   180
   188          -1           0          10     18.5000     32.0429      0.9500      0.3667   6.700E+00   0.000E+00   0.000E+00   0.000E+00   0.000E+00           T           F   0.000E+00   0.000E+00   7.200E-01   0.000E+00   0.000E+00   0.000E+00   0.000E+00   0.000E+00   0.000E+00   0.000E+00      2    17   181
   189          -1           0          10     18.5000     32.0429      1.9000      0.4370   6.700E+00   0.000E+00   0.000E+00   0.000E+00   0.000E+00           T           F   0.000E+00   0.000E+00   7.200E-01   0.000E+00   0.000E+00   0.000E+00   0.000E+00   0.000E+00   0.000E+00   0.000E+00      2   181   182
   190          -1           0          10     18.5000     32.0429      2.8500      0.5074   6.700E+00   0.000E+00   0.000E+00   0.000E+00   0.000E+00           T           F   0.000E+00   0.000E+00   7.200E-01   0.000E+00   0.000E+00   0.000E+00   0.000E+00   0.000E+00   0.000E+00   0.000E+00      2   182   183
   191          -1           0          10     18.5000     32.0429      3.8000      0.5778   6.700E+00   0.000E+00   0.000E+00   0.000E+00   0.000E+00           T           F   0.000E+00   0.000E+00   7.200E-01   0.000E+00   0.000E+00   0.000E+00   0.000E+00   0.000E+00   0.000E+00   0.000E+00      2   183   184
   192          -1           0          10     18.5000     32.0429      4.7500      0.6481   6.700E+00   0.000E+00   0.000E+00   0.000E+00   0.000E+00           T           F   0.000E+00   0.000E+00   7.200E-01   0.000E+00   0.000E+00   0.000E+00   0.000E+00   0.000E+00   0.000E+00   0.000E+00      2   184   185
   193          -1           0          10     18.5000     32.0429      5.7000      0.7185   6.700E+00   0.000E+00   0.000E+00   0.000E+00   0.000E+00           T           F   0.000E+00   0.000E+00   7.200E-01   0.000E+00   0.000E+00   0.000E+00   0.000E+00   0.000E+00   0.000E+00   0.000E+00      2   185   186
   194          -1           0          10     18.5000     32.0429      6.6500      0.7889   6.700E+00   0.000E+00   0.000E+00   0.000E+00   0.000E+00           T           F   0.000E+00   0.000E+00   7.200E-01   0.000E+00   0.000E+00   0.000E+00   0.000E+00   0.000E+00   0.000E+00   0.000E+00      2   186   187
   195          -1           0          10     18.5000     32.0429      7.6000      0.8593   6.700E+00   0.000E+00   0.000E+00   0.000E+00   0.000E+00           T           F   0.000E+00   0.000E+00   7.200E-01   0.000E+00   0.000E+00   0.000E+00   0.000E+00   0.000E+00   0.000E+00   0.000E+00      2   187   188
   196          -1           0          10     18.5000     32.0429      8.5500      0.9296   6.700E+00   0.000E+00   0.000E+00   0.000E+00   0.000E+00           T           F   0.000E+00   0.000E+00   7.200E-01   0.000E+00   0.000E+00   0.000E+00   0.000E+00   0.000E+00   0.000E+00   0.000E+00      2   188   189
   197          -1           0          14     18.5000    -32.0429      0.9500      0.3667   6.700E+00   0.000E+00   0.000E+00   0.000E+00   0.000E+00           T           F   0.000E+00   0.000E+00   7.200E-01   0.000E+00   0.000E+00   0.000E+00   0.000E+00   0.000E+00   0.000E+00   0.000E+00      2    18   190
   198          -1           0          14     18.5000    -32.0429      1.9000      0.4370   6.700E+00   0.000E+00   0.000E+00   0.000E+00   0.000E+00           T           F   0.000E+00   0.000E+00   7.200E-01   0.000E+00   0.000E+00   0.000E+00   0.000E+00   0.000E+00   0.000E+00   0.000E+00      2   190   191
   199          -1           0          14     18.5000    -32.0429      2.8500      0.5074   6.700E+00   0.000E+00   0.000E+00   0.000E+00   0.000E+00           T           F   0.000E+00   0.000E+00   7.200E-01   0.000E+00   0.000E+00   0.000E+00   0.000E+00   0.000E+00   0.000E+00   0.000E+00      2   191   192
   200          -1           0          14     18.5000    -32.0429      3.8000      0.5778   6.700E+00   0.000E+00   0.000E+00   0.000E+00   0.000E+00           T           F   0.000E+00   0.000E+00   7.200E-01   0.000E+00   0.000E+00   0.000E+00   0.000E+00   0.000E+00   0.000E+00   0.000E+00      2   192   193
   201          -1           0          14     18.5000    -32.0429      4.7500      0.6481   6.700E+00   0.000E+00   0.000E+00   0.000E+00   0.000E+00           T           F   0.000E+00   0.000E+00   7.200E-01   0.000E+00   0.000E+00   0.000E+00   0.000E+00   0.000E+00   0.000E+00   0.000E+00      2   193   194
   202          -1           0          14     18.5000    -32.0429      5.7000      0.7185   6.700E+00   0.000E+00   0.000E+00   0.000E+00   0.000E+00           T           F   0.000E+00   0.000E+00   7.200E-01   0.000E+00   0.000E+00   0.000E+00   0.000E+00   0.000E+00   0.000E+00   0.000E+00      2   194   195
   203          -1           0          14     18.5000    -32.0429      6.6500      0.7889   6.700E+00   0.000E+00   0.000E+00   0.000E+00   0.000E+00           T           F   0.000E+00   0.000E+00   7.200E-01   0.000E+00   0.000E+00   0.000E+00   0.000E+00   0.000E+00   0.000E+00   0.000E+00      2   195   196
   204          -1           0          14     18.5000    -32.0429      7.6000      0.8593   6.700E+00   0.000E+00   0.000E+00   0.000E+00   0.000E+00           T           F   0.000E+00   0.000E+00   7.200E-01   0.000E+00   0.000E+00   0.000E+00   0.000E+00   0.000E+00   0.000E+00   0.000E+00      2   196   197
   205          -1           0          14     18.5000    -32.0429      8.5500      0.9296   6.700E+00   0.000E+00   0.000E+00   0.000E+00   0.000E+00           T           F   0.000E+00   0.000E+00   7.200E-01   0.000E+00   0.000E+00   0.000E+00   0.000E+00   0.000E+00   0.000E+00   0.000E+00      2   197   198
   206           2           0           1      0.0000      0.0000      2.7750      1.0000   6.025E+00   0.000E+00   0.000E+00   0.000E+00   0.000E+00           T           F   0.000E+00   0.000E+00   7.290E-01   0.000E+00   0.000E+00   0.000E+00   0.000E+00   0.000E+00   0.000E+00   0.000E+00      1     1
   207           7           0           5    -37.0000      0.0000    -15.0000      0.0000   7.900E+00  -1.091E-01   0.000E+00   0.000E+00   0.000E+00           T           F   0.000E+00   0.000E+00   7.060E-01   0.000E+00   0.000E+00   0.000E+00   0.000E+00   0.000E+00   0.000E+00   0.000E+00      1     5
   208           8           0           6    -37.0000      0.0000     -4.0000      0.0000   6.700E+00   0.000E+00   0.000E+00   0.000E+00   0.000E+00           T           F   0.000E+00   0.000E+00   7.200E-01   0.000E+00   0.000E+00   0.000E+00   0.000E+00   0.000E+00   0.000E+00   0.000E+00      1     6
   209          13           0           9     18.5000     32.0429    -15.0000      0.0000   7.900E+00  -1.091E-01   0.000E+00   0.000E+00   0.000E+00           T           F   0.000E+00   0.000E+00   7.060E-01   0.000E+00   0.000E+00   0.000E+00   0.000E+00   0.000E+00   0.000E+00   0.000E+00      1     9
   210          14           0          10     18.5000     32.0429     -4.0000      0.0000   6.700E+00   0.000E+00   0.000E+00   0.000E+00   0.000E+00           T           F   0.000E+00   0.000E+00   7.200E-01   0.000E+00   0.000E+00   0.000E+00   0.000E+00   0.000E+00   0.000E+00   0.000E+00      1    10
   211          19           0          13     18.5000    -32.0429    -15.0000      0.0000   7.900E+00  -1.091E-01   0.000E+00   0.000E+00   0.000E+00           T           F   0.000E+00   0.000E+00   7.060E-01   0.000E+00   0.000E+00   0.000E+00   0.000E+00   0.000E+00   0.000E+00   0.000E+00      1    13
   212          20           0          14     18.5000    -32.0429     -4.0000      0.0000   6.700E+00   0.000E+00   0.000E+00   0.000E+00   0.000E+00           T           F   0.000E+00   0.000E+00   7.200E-01   0.000E+00   0.000E+00   0.000E+00   0.000E+00   0.000E+00   0.000E+00   0.000E+00      1    14
   213          22           0           2      0.0000      0.0000      0.0000      0.1561   6.349E+00  -1.167E-01   0.000E+00   0.000E+00   0.000E+00           T           F   0.000E+00   0.000E+00   7.290E-01   0.000E+00   0.000E+00   0.000E+00   0.000E+00   0.000E+00   0.000E+00   0.000E+00      1    15
   214          23           0           6    -37.0000      0.0000      0.0000      0.2963   6.700E+00   0.000E+00   0.000E+00   0.000E+00   0.000E+00           T           F   0.000E+00   0.000E+00   7.200E-01   0.000E+00   0.000E+00   0.000E+00   0.000E+00   0.000E+00   0.000E+00   0.000E+00      1    16
   215          24           0          10     18.5000     32.0429      0.0000      0.2963   6.700E+00   0.000E+00   0.000E+00   0.000E+00   0.000E+00           T           F   0.000E+00   0.000E+00   7.200E-01   0.000E+00   0.000E+00   0.000E+00   0.000E+00   0.000E+00   0.000E+00   0.000E+00      1    17
   216          25           0          14     18.5000    -32.0429      0.0000      0.2963   6.700E+00   0.000E+00   0.000E+00   0.000E+00   0.000E+00           T           F   0.000E+00   0.000E+00   7.200E-01   0.000E+00   0.000E+00   0.000E+00   0.000E+00   0.000E+00   0.000E+00   0.000E+00      1    18



Elements


   i    node1  node2      Length       Volume       MGVolume          R1          tMG1           t1             R2          tMG2           t2          MGDens1       MGDens2        PropPot     FilledFlag   FillDensity    FillFSLoc     FillMass         Cd1            Ca1          Cp1          AxCa1         AxCp1        JAxCd1        JAxCa1        JAxCp1          Cd2           Ca2           Cp2          AxCa2         AxCp2        JAxCd2        JAxCa2        JAxCp2   
  (-)    (-)    (-)        (m)         (m^3)         (m^3)           (m)           (m)           (m)           (m)           (m)           (m)        (kg/m^3)      (kg/m^3)         (-)           (-)        (kg/m^3)         (-)          (kg)           (-)            (-)          (-)           (-)           (-)           (-)           (-)           (-)           (-)            (-)          (-)           (-)           (-)           (-)           (-)           (-)    
     1    206     26   9.13889E-01   0.00000E+00   0.00000E+00   6.02500E+00   0.00000E+00   0.00000E+00   6.02500E+00   0.00000E+00   0.00000E+00   0.00000E+00   0.00000E+00             T             F   0.00000E+00   0.00000E+00   0.00000E+00   7.29000E-01   0.00000E+00   0.00000E+00   0.00000E+00   0.00000E+00   0.00000E+00   0.00000E+00   0.00000E+00   7.29000E-01   0.00000E+00   0.00000E+00   0.00000E+00   0.00000E+00   0.00000E+00   0.00000E+00   0.00000E+00
     2      3     34   1.00000E+00   0.00000E+00   0.00000E+00   8.10000E+00   0.00000E+00   0.00000E+00   7.98326E+00   0.00000E+00   0.00000E+00   0.00000E+00   0.00000E+00             T             F   0.00000E+00   0.00000E+00   0.00000E+00   7.29000E-01   0.00000E+00   0.00000E+00   0.00000E+00   0.00000E+00   1.49900E+01   0.00000E+00   0.00000E+00   7.04000E-01   0.00000E+00   0.00000E+00   0.00000E+00   0.00000E+00   0.00000E+00   0.00000E+00   0.00000E+00
     3      5     48   9.79248E-01   0.00000E+00   0.00000E+00   3.50000E+00   0.00000E+00   0.00000E+00   3.50000E+00   0.00000E+00   0.00000E+00   0.00000E+00   0.00000E+00             T             F   0.00000E+00   0.00000E+00   0.00000E+00   2.05000E+00   0.00000E+00   0.00000E+00   0.00000E+00   0.00000E+00   0.00000E+00   0.00000E+00   0.00000E+00   2.05000E+00   0.00000E+00   0.00000E+00   0.00000E+00   0.00000E+00   0.00000E+00   0.00000E+00   0.00000E+00
     4      6     72   9.28572E-01   0.00000E+00   0.00000E+00   7.90000E+00   0.00000E+00   0.00000E+00   7.90000E+00   0.00000E+00   0.00000E+00   0.00000E+00   0.00000E+00             T             F   0.00000E+00   0.00000E+00   0.00000E+00   7.06000E-01   0.00000E+00   0.00000E+00   0.00000E+00   0.00000E+00   3.83400E+01   0.00000E+00   0.00000E+00   7.06000E-01   0.00000E+00   0.00000E+00   0.00000E+00   0.00000E+00   0.00000E+00   0.00000E+00   0.00000E+00
     5    207     78   1.00000E+00   0.00000E+00   0.00000E+00   7.90000E+00   0.00000E+00   0.00000E+00   7.79091E+00   0.00000E+00   0.00000E+00   0.00000E+00   0.00000E+00             T             F   0.00000E+00   0.00000E+00   0.00000E+00   7.06000E-01   0.00000E+00   0.00000E+00   0.00000E+00   0.00000E+00   0.00000E+00   0.00000E+00   0.00000E+00   7.20000E-01   0.00000E+00   0.00000E+00   0.00000E+00   0.00000E+00   0.00000E+00   0.00000E+00   0.00000E+00
     6    208     88   1.00000E+00   0.00000E+00   0.00000E+00   6.70000E+00   0.00000E+00   0.00000E+00   6.70000E+00   0.00000E+00   0.00000E+00   0.00000E+00   0.00000E+00             T             F   0.00000E+00   0.00000E+00   0.00000E+00   7.20000E-01   0.00000E+00   0.00000E+00   0.00000E+00   0.00000E+00   0.00000E+00   0.00000E+00   0.00000E+00   7.20000E-01   0.00000E+00   0.00000E+00   0.00000E+00   0.00000E+00   0.00000E+00   0.00000E+00   0.00000E+00
     7     10     91   9.79247E-01   0.00000E+00   0.00000E+00   3.50000E+00   0.00000E+00   0.00000E+00   3.50000E+00   0.00000E+00   0.00000E+00   0.00000E+00   0.00000E+00             T             F   0.00000E+00   0.00000E+00   0.00000E+00   2.05000E+00   0.00000E+00   0.00000E+00   0.00000E+00   0.00000E+00   0.00000E+00   0.00000E+00   0.00000E+00   2.05000E+00   0.00000E+00   0.00000E+00   0.00000E+00   0.00000E+00   0.00000E+00   0.00000E+00   0.00000E+00
     8     12    115   9.28572E-01   0.00000E+00   0.00000E+00   7.90000E+00   0.00000E+00   0.00000E+00   7.90000E+00   0.00000E+00   0.00000E+00   0.00000E+00   0.00000E+00             T             F   0.00000E+00   0.00000E+00   0.00000E+00   7.06000E-01   0.00000E+00   0.00000E+00   0.00000E+00   0.00000E+00   3.83400E+01   0.00000E+00   0.00000E+00   7.06000E-01   0.00000E+00   0.00000E+00   0.00000E+00   0.00000E+00   0.00000E+00   0.00000E+00   0.00000E+00
     9    209    121   1.00000E+00   0.00000E+00   0.00000E+00   7.90000E+00   0.00000E+00   0.00000E+00   7.79091E+00   0.00000E+00   0.00000E+00   0.00000E+00   0.00000E+00             T             F   0.00000E+00   0.00000E+00   0.00000E+00   7.06000E-01   0.00000E+00   0.00000E+00   0.00000E+00   0.00000E+00   0.00000E+00   0.00000E+00   0.00000E+00   7.20000E-01   0.00000E+00   0.00000E+00   0.00000E+00   0.00000E+00   0.00000E+00   0.00000E+00   0.00000E+00
    10    210    131   1.00000E+00   0.00000E+00   0.00000E+00   6.70000E+00   0.00000E+00   0.00000E+00   6.70000E+00   0.00000E+00   0.00000E+00   0.00000E+00   0.00000E+00             T             F   0.00000E+00   0.00000E+00   0.00000E+00   7.20000E-01   0.00000E+00   0.00000E+00   0.00000E+00   0.00000E+00   0.00000E+00   0.00000E+00   0.00000E+00   7.20000E-01   0.00000E+00   0.00000E+00   0.00000E+00   0.00000E+00   0.00000E+00   0.00000E+00   0.00000E+00
    11     16    134   9.79247E-01   0.00000E+00   0.00000E+00   3.50000E+00   0.00000E+00   0.00000E+00   3.50000E+00   0.00000E+00   0.00000E+00   0.00000E+00   0.00000E+00             T             F   0.00000E+00   0.00000E+00   0.00000E+00   2.05000E+00   0.00000E+00   0.00000E+00   0.00000E+00   0.00000E+00   0.00000E+00   0.00000E+00   0.00000E+00   2.05000E+00   0.00000E+00   0.00000E+00   0.00000E+00   0.00000E+00   0.00000E+00   0.00000E+00   0.00000E+00
    12     18    158   9.28572E-01   0.00000E+00   0.00000E+00   7.90000E+00   0.00000E+00   0.00000E+00   7.90000E+00   0.00000E+00   0.00000E+00   0.00000E+00   0.00000E+00             T             F   0.00000E+00   0.00000E+00   0.00000E+00   7.06000E-01   0.00000E+00   0.00000E+00   0.00000E+00   0.00000E+00   3.83400E+01   0.00000E+00   0.00000E+00   7.06000E-01   0.00000E+00   0.00000E+00   0.00000E+00   0.00000E+00   0.00000E+00   0.00000E+00   0.00000E+00
    13    211    164   1.00000E+00   0.00000E+00   0.00000E+00   7.90000E+00   0.00000E+00   0.00000E+00   7.79091E+00   0.00000E+00   0.00000E+00   0.00000E+00   0.00000E+00             T             F   0.00000E+00   0.00000E+00   0.00000E+00   7.06000E-01   0.00000E+00   0.00000E+00   0.00000E+00   0.00000E+00   0.00000E+00   0.00000E+00   0.00000E+00   7.20000E-01   0.00000E+00   0.00000E+00   0.00000E+00   0.00000E+00   0.00000E+00   0.00000E+00   0.00000E+00
    14    212    174   1.00000E+00   0.00000E+00   0.00000E+00   6.70000E+00   0.00000E+00   0.00000E+00   6.70000E+00   0.00000E+00   0.00000E+00   0.00000E+00   0.00000E+00             T             F   0.00000E+00   0.00000E+00   0.00000E+00   7.20000E-01   0.00000E+00   0.00000E+00   0.00000E+00   0.00000E+00   0.00000E+00   0.00000E+00   0.00000E+00   7.20000E-01   0.00000E+00   0.00000E+00   0.00000E+00   0.00000E+00   0.00000E+00   0.00000E+00   0.00000E+00
    15    213    177   9.25000E-01   0.00000E+00   0.00000E+00   6.34895E+00   0.00000E+00   0.00000E+00   6.24096E+00   0.00000E+00   0.00000E+00   0.00000E+00   0.00000E+00             T             F   0.00000E+00   0.00000E+00   0.00000E+00   7.29000E-01   0.00000E+00   0.00000E+00   0.00000E+00   0.00000E+00   0.00000E+00   0.00000E+00   0.00000E+00   7.04000E-01   0.00000E+00   0.00000E+00   0.00000E+00   0.00000E+00   0.00000E+00   0.00000E+00   0.00000E+00
    16    214    179   9.50000E-01   0.00000E+00   0.00000E+00   6.70000E+00   0.00000E+00   0.00000E+00   6.70000E+00   0.00000E+00   0.00000E+00   0.00000E+00   0.00000E+00             T             F   0.00000E+00   0.00000E+00   0.00000E+00   7.20000E-01   0.00000E+00   0.00000E+00   0.00000E+00   0.00000E+00   0.00000E+00   0.00000E+00   0.00000E+00   7.20000E-01   0.00000E+00   0.00000E+00   0.00000E+00   0.00000E+00   0.00000E+00   0.00000E+00   0.00000E+00
[...]
       3952   0.98800E+02      -4.06846E+03       0.00000E+00       1.27229E+02       0.00000E+00       2.09510E+04       0.00000E+00      -4.09021E+03       0.00000E+00      -1.81985E+04       0.00000E+00       2.07558E+02      -8.79648E+02       0.00000E+00       8.01140E+02       0.00000E+00      -1.16195E+05       0.00000E+00       4.08592E+02      -1.56549E+05       0.00000E+00       7.22616E+05
       3953   0.98825E+02      -4.23297E+03       0.00000E+00       1.20326E+02       0.00000E+00       2.16153E+04       0.00000E+00      -4.25460E+03       0.00000E+00      -1.89942E+04       0.00000E+00       2.01168E+02      -9.14978E+02       0.00000E+00       7.60000E+02       0.00000E+00      -1.22258E+05       0.00000E+00       3.85808E+02      -1.60313E+05       0.00000E+00       6.94043E+05
       3954   0.98850E+02      -4.38158E+03       0.00000E+00       1.13146E+02       0.00000E+00       2.23217E+04       0.00000E+00      -4.40300E+03       0.00000E+00      -1.98472E+04       0.00000E+00       1.93947E+02      -9.47712E+02       0.00000E+00       7.17032E+02       0.00000E+00      -1.28156E+05       0.00000E+00       3.61864E+02      -1.63758E+05       0.00000E+00       6.57392E+05
       3955   0.98875E+02      -4.50275E+03       0.00000E+00       1.05714E+02       0.00000E+00       2.29442E+04       0.00000E+00      -4.52393E+03       0.00000E+00      -2.06137E+04       0.00000E+00       1.86173E+02      -9.82896E+02       0.00000E+00       6.72576E+02       0.00000E+00      -1.34171E+05       0.00000E+00       3.35885E+02      -1.67327E+05       0.00000E+00       6.28458E+05
       3956   0.98900E+02      -4.60518E+03       0.00000E+00       9.80503E+01       0.00000E+00       2.35991E+04       0.00000E+00      -4.62604E+03       0.00000E+00      -2.14257E+04       0.00000E+00       1.77659E+02      -1.01546E+03       0.00000E+00       6.26486E+02       0.00000E+00      -1.40018E+05       0.00000E+00       3.08880E+02      -1.70541E+05       0.00000E+00       5.93238E+05
       3957   0.98925E+02      -4.67771E+03       0.00000E+00       9.01803E+01       0.00000E+00       2.41604E+04       0.00000E+00      -4.69809E+03       0.00000E+00      -2.21419E+04       0.00000E+00       1.68683E+02      -1.05036E+03       0.00000E+00       5.79113E+02       0.00000E+00      -1.45979E+05       0.00000E+00       2.79994E+02      -1.73932E+05       0.00000E+00       5.67428E+05
       3958   0.98950E+02      -4.72936E+03       0.00000E+00       8.21251E+01       0.00000E+00       2.47444E+04       0.00000E+00      -4.74923E+03       0.00000E+00      -2.28941E+04       0.00000E+00       1.59064E+02      -1.08266E+03       0.00000E+00       5.30320E+02       0.00000E+00      -1.51732E+05       0.00000E+00       2.50224E+02      -1.76964E+05       0.00000E+00       5.36936E+05
       3959   0.98975E+02      -4.74918E+03       0.00000E+00       7.39102E+01       0.00000E+00       2.52249E+04       0.00000E+00      -4.76844E+03       0.00000E+00      -2.35377E+04       0.00000E+00       1.49083E+02      -1.11721E+03       0.00000E+00       4.80455E+02       0.00000E+00      -1.57611E+05       0.00000E+00       2.18753E+02      -1.80118E+05       0.00000E+00       5.17538E+05
       3960   0.99000E+02      -4.74669E+03       0.00000E+00       6.55566E+01       0.00000E+00       2.57198E+04       0.00000E+00      -4.76528E+03       0.00000E+00      -2.42094E+04       0.00000E+00       1.38560E+02      -1.14906E+03       0.00000E+00       4.29396E+02       0.00000E+00      -1.63267E+05       0.00000E+00       1.86576E+02      -1.82944E+05       0.00000E+00       4.94895E+05
       3961   0.99025E+02      -4.71142E+03       0.00000E+00       5.70897E+01       0.00000E+00       2.61036E+04       0.00000E+00      -4.72908E+03       0.00000E+00      -2.47620E+04       0.00000E+00       1.27776E+02      -1.18327E+03       0.00000E+00       3.77498E+02       0.00000E+00      -1.69010E+05       0.00000E+00       1.52838E+02      -1.85863E+05       0.00000E+00       4.84639E+05
       3962   0.99050E+02      -4.65299E+03       0.00000E+00       4.85301E+01       0.00000E+00       2.64950E+04       0.00000E+00      -4.66995E+03       0.00000E+00      -2.53368E+04       0.00000E+00       1.16551E+02      -1.21466E+03       0.00000E+00       3.24642E+02       0.00000E+00      -1.74522E+05       0.00000E+00       1.18584E+02      -1.88465E+05       0.00000E+00       4.72384E+05
       3963   0.99075E+02      -4.56158E+03       0.00000E+00       3.99030E+01       0.00000E+00       2.67674E+04       0.00000E+00      -4.57719E+03       0.00000E+00      -2.57824E+04       0.00000E+00       1.05170E+02      -1.24830E+03       0.00000E+00       2.71182E+02       0.00000E+00      -1.80116E+05       0.00000E+00       8.29981E+01      -1.91162E+05       0.00000E+00       4.73760E+05
       3964   0.99100E+02      -4.44698E+03       0.00000E+00       3.12284E+01       0.00000E+00       2.70428E+04       0.00000E+00      -4.46182E+03       0.00000E+00      -2.62441E+04       0.00000E+00       9.34480E+01      -1.27907E+03       0.00000E+00       2.17016E+02       0.00000E+00      -1.85467E+05       0.00000E+00       4.70880E+01      -1.93544E+05       0.00000E+00       4.73891E+05
       3965   0.99125E+02      -4.29984E+03       0.00000E+00       2.25308E+01       0.00000E+00       2.71940E+04       0.00000E+00      -4.31329E+03       0.00000E+00      -2.65726E+04       0.00000E+00       8.16706E+01      -1.31207E+03       0.00000E+00       1.62485E+02       0.00000E+00      -1.90871E+05       0.00000E+00       1.00361E+01      -1.96009E+05       0.00000E+00       4.88604E+05
       3966   0.99150E+02      -4.13030E+03       0.00000E+00       1.38296E+01       0.00000E+00       2.73439E+04       0.00000E+00      -4.14291E+03       0.00000E+00      -2.69117E+04       0.00000E+00       6.96530E+01      -1.34211E+03       0.00000E+00       1.07496E+02       0.00000E+00      -1.95985E+05       0.00000E+00      -2.71200E+01      -1.98148E+05       0.00000E+00       5.02727E+05
       3967   0.99175E+02      -3.92972E+03       0.00000E+00       5.14833E+00       0.00000E+00       2.73683E+04       0.00000E+00      -3.94063E+03       0.00000E+00      -2.71149E+04       0.00000E+00       5.76746E+01      -1.37436E+03       0.00000E+00       5.24055E+01       0.00000E+00      -2.01223E+05       0.00000E+00      -6.52189E+01      -2.00399E+05       0.00000E+00       5.31760E+05
       3968   0.99200E+02      -3.70842E+03       0.00000E+00      -3.49445E+00       0.00000E+00       2.73900E+04       0.00000E+00      -3.71827E+03       0.00000E+00      -2.73254E+04       0.00000E+00       4.55500E+01      -1.40365E+03       0.00000E+00      -2.89000E+00       0.00000E+00      -2.06144E+05       0.00000E+00      -1.03216E+02      -2.02326E+05       0.00000E+00       5.60660E+05
       3969   0.99225E+02      -3.45785E+03       0.00000E+00      -1.20762E+01       0.00000E+00       2.72851E+04       0.00000E+00      -3.46589E+03       0.00000E+00      -2.73999E+04       0.00000E+00       3.35570E+01      -1.43493E+03       0.00000E+00      -5.80348E+01       0.00000E+00      -2.11127E+05       0.00000E+00      -1.41898E+02      -2.04350E+05       0.00000E+00       6.04554E+05
       3970   0.99250E+02      -3.18912E+03       0.00000E+00      -2.05795E+01       0.00000E+00       2.71780E+04       0.00000E+00      -3.19590E+03       0.00000E+00      -2.74842E+04       0.00000E+00       2.15050E+01      -1.46323E+03       0.00000E+00      -1.13126E+02       0.00000E+00      -2.15810E+05       0.00000E+00      -1.80272E+02      -2.06012E+05       0.00000E+00       6.48282E+05
       3971   0.99275E+02      -2.89377E+03       0.00000E+00      -2.89828E+01       0.00000E+00       2.69476E+04       0.00000E+00      -2.89873E+03       0.00000E+00      -2.74278E+04       0.00000E+00       9.66728E+00      -1.49352E+03       0.00000E+00      -1.67811E+02       0.00000E+00      -2.20537E+05       0.00000E+00      -2.19129E+02      -2.07858E+05       0.00000E+00       7.06790E+05
       3972   0.99300E+02      -2.58304E+03       0.00000E+00      -3.72700E+01       0.00000E+00       2.67182E+04       0.00000E+00      -2.58701E+03       0.00000E+00      -2.73848E+04       0.00000E+00      -2.15100E+00      -1.52077E+03       0.00000E+00      -2.22188E+02       0.00000E+00      -2.24969E+05       0.00000E+00      -2.57424E+02      -2.09338E+05       0.00000E+00       7.64805E+05
       3973   0.99325E+02      -2.24966E+03       0.00000E+00      -4.54209E+01       0.00000E+00       2.63682E+04       0.00000E+00      -2.25121E+03       0.00000E+00      -2.72070E+04       0.00000E+00      -1.36752E+01      -1.54989E+03       0.00000E+00      -2.75896E+02       0.00000E+00      -2.29414E+05       0.00000E+00      -2.96028E+02      -2.10952E+05       0.00000E+00       8.37059E+05
       3974   0.99350E+02      -1.90438E+03       0.00000E+00      -5.34205E+01       0.00000E+00       2.60250E+04       0.00000E+00      -1.90477E+03       0.00000E+00      -2.70449E+04       0.00000E+00      -2.51090E+01      -1.57587E+03       0.00000E+00      -3.29042E+02       0.00000E+00      -2.33554E+05       0.00000E+00      -3.33840E+02      -2.12238E+05       0.00000E+00       9.07936E+05
       3975   0.99375E+02      -1.54000E+03       0.00000E+00      -6.12499E+01       0.00000E+00       2.55677E+04       0.00000E+00      -1.53809E+03       0.00000E+00      -2.67558E+04       0.00000E+00      -3.61853E+01      -1.60374E+03       0.00000E+00      -3.81278E+02       0.00000E+00      -2.37728E+05       0.00000E+00      -3.71722E+02      -2.13641E+05       0.00000E+00       9.92592E+05
       3976   0.99400E+02      -1.16774E+03       0.00000E+00      -6.88955E+01       0.00000E+00       2.51228E+04       0.00000E+00      -1.16506E+03       0.00000E+00      -2.64868E+04       0.00000E+00      -4.71060E+01      -1.62835E+03       0.00000E+00      -4.32702E+02       0.00000E+00      -2.41566E+05       0.00000E+00      -4.08624E+02      -2.14729E+05       0.00000E+00       1.07492E+06
       3977   0.99425E+02      -7.81452E+02       0.00000E+00      -7.63398E+01       0.00000E+00       2.45753E+04       0.00000E+00      -7.75941E+02       0.00000E+00      -2.60991E+04       0.00000E+00      -5.76143E+01      -1.65479E+03       0.00000E+00      -4.82964E+02       0.00000E+00      -2.45448E+05       0.00000E+00      -4.45352E+02      -2.15950E+05       0.00000E+00       1.16969E+06
       3978   0.99450E+02      -3.91808E+02       0.00000E+00      -8.35705E+01       0.00000E+00       2.40517E+04       0.00000E+00      -3.85152E+02       0.00000E+00      -2.57403E+04       0.00000E+00      -6.79130E+01      -1.67789E+03       0.00000E+00      -5.32176E+02       0.00000E+00      -2.48988E+05       0.00000E+00      -4.80944E+02      -2.16859E+05       0.00000E+00       1.26104E+06
       3979   0.99475E+02       7.87600E+00       0.00000E+00      -9.05717E+01       0.00000E+00       2.34282E+04       0.00000E+00       1.70350E+01       0.00000E+00      -2.52708E+04       0.00000E+00      -7.77498E+01      -1.70281E+03       0.00000E+00      -5.79994E+02       0.00000E+00      -2.52551E+05       0.00000E+00      -5.16088E+02      -2.17904E+05       0.00000E+00       1.36349E+06
       3980   0.99500E+02       4.05632E+02       0.00000E+00      -9.73322E+01       0.00000E+00       2.28403E+04       0.00000E+00       4.16256E+02       0.00000E+00      -2.48422E+04       0.00000E+00      -8.73340E+01      -1.72429E+03       0.00000E+00      -6.26528E+02       0.00000E+00      -2.55787E+05       0.00000E+00      -5.49920E+02      -2.18677E+05       0.00000E+00       1.46093E+06
       3981   0.99525E+02       8.08916E+02       0.00000E+00      -1.03838E+02       0.00000E+00       2.21675E+04       0.00000E+00       8.21643E+02       0.00000E+00      -2.43102E+04       0.00000E+00      -9.64161E+01      -1.74750E+03       0.00000E+00      -6.71448E+02       0.00000E+00      -2.59027E+05       0.00000E+00      -5.83147E+02      -2.19543E+05       0.00000E+00       1.56842E+06
       3982   0.99550E+02       1.20563E+03       0.00000E+00      -1.10078E+02       0.00000E+00       2.15398E+04       0.00000E+00       1.21933E+03       0.00000E+00      -2.38316E+04       0.00000E+00      -1.05208E+02      -1.76730E+03       0.00000E+00      -7.14866E+02       0.00000E+00      -2.61964E+05       0.00000E+00      -6.14816E+02      -2.20135E+05       0.00000E+00       1.66960E+06
       3983   0.99575E+02       1.60191E+03       0.00000E+00      -1.16041E+02       0.00000E+00       2.08404E+04       0.00000E+00       1.61818E+03       0.00000E+00      -2.32609E+04       0.00000E+00      -1.13471E+02      -1.78860E+03       0.00000E+00      -7.56456E+02       0.00000E+00      -2.64860E+05       0.00000E+00      -6.45781E+02      -2.20901E+05       0.00000E+00       1.77830E+06
       3984   0.99600E+02       1.98707E+03       0.00000E+00      -1.21717E+02       0.00000E+00       2.01984E+04       0.00000E+00       2.00448E+03       0.00000E+00      -2.27543E+04       0.00000E+00      -1.21416E+02      -1.80646E+03       0.00000E+00      -7.96342E+02       0.00000E+00      -2.67452E+05       0.00000E+00      -6.74976E+02      -2.21413E+05       0.00000E+00       1.87931E+06
       3985   0.99625E+02       2.36732E+03       0.00000E+00      -1.27096E+02       0.00000E+00       1.94951E+04       0.00000E+00       2.38691E+03       0.00000E+00      -2.21694E+04       0.00000E+00      -1.28803E+02      -1.82587E+03       0.00000E+00      -8.34209E+02       0.00000E+00      -2.70051E+05       0.00000E+00      -7.03296E+02      -2.21998E+05       0.00000E+00       1.98658E+06
       3986   0.99650E+02       2.73126E+03       0.00000E+00      -1.32169E+02       0.00000E+00       1.88621E+04       0.00000E+00       2.75200E+03       0.00000E+00      -2.16627E+04       0.00000E+00      -1.35854E+02      -1.84173E+03       0.00000E+00      -8.70188E+02       0.00000E+00      -2.72302E+05       0.00000E+00      -7.29712E+02      -2.22364E+05       0.00000E+00       2.08431E+06
       3987   0.99675E+02       3.08588E+03       0.00000E+00      -1.36927E+02       0.00000E+00       1.81817E+04       0.00000E+00       3.10856E+03       0.00000E+00      -2.10832E+04       0.00000E+00      -1.42330E+02      -1.85904E+03       0.00000E+00      -9.03962E+02       0.00000E+00      -2.74588E+05       0.00000E+00      -7.55063E+02      -2.22866E+05       0.00000E+00       2.18677E+06
       3988   0.99700E+02       3.41965E+03       0.00000E+00      -1.41364E+02       0.00000E+00       1.75831E+04       0.00000E+00       3.44294E+03       0.00000E+00      -2.05967E+04       0.00000E+00      -1.48454E+02      -1.87270E+03       0.00000E+00      -9.35684E+02       0.00000E+00      -2.76496E+05       0.00000E+00      -7.78368E+02      -2.23117E+05       0.00000E+00       2.27803E+06
       3989   0.99725E+02       3.73956E+03       0.00000E+00      -1.45470E+02       0.00000E+00       1.69486E+04       0.00000E+00       3.76504E+03       0.00000E+00      -2.00492E+04       0.00000E+00      -1.53991E+02      -1.88792E+03       0.00000E+00      -9.65047E+02       0.00000E+00      -2.78471E+05       0.00000E+00      -8.00519E+02      -2.23542E+05       0.00000E+00       2.37240E+06
       3990   0.99750E+02       4.03482E+03       0.00000E+00      -1.49242E+02       0.00000E+00       1.64086E+04       0.00000E+00       4.06093E+03       0.00000E+00      -1.96035E+04       0.00000E+00      -1.59166E+02      -1.89946E+03       0.00000E+00      -9.92204E+02       0.00000E+00      -2.80101E+05       0.00000E+00      -8.20496E+02      -2.23707E+05       0.00000E+00       2.45393E+06
       3991   0.99775E+02       4.31188E+03       0.00000E+00      -1.52671E+02       0.00000E+00       1.58420E+04       0.00000E+00       4.33978E+03       0.00000E+00      -1.91110E+04       0.00000E+00      -1.63747E+02      -1.91230E+03       0.00000E+00      -1.01688E+03       0.00000E+00      -2.81702E+05       0.00000E+00      -8.39170E+02      -2.24058E+05       0.00000E+00       2.53745E+06
       3992   0.99800E+02       4.56013E+03       0.00000E+00      -1.55754E+02       0.00000E+00       1.53805E+04       0.00000E+00       4.58880E+03       0.00000E+00      -1.87269E+04       0.00000E+00      -1.67958E+02      -1.92147E+03       0.00000E+00      -1.03922E+03       0.00000E+00      -2.83017E+05       0.00000E+00      -8.55584E+02      -2.24100E+05       0.00000E+00       2.60676E+06
       3993   0.99825E+02       4.78824E+03       0.00000E+00      -1.58484E+02       0.00000E+00       1.49029E+04       0.00000E+00       4.81817E+03       0.00000E+00      -1.83081E+04       0.00000E+00      -1.71570E+02      -1.93202E+03       0.00000E+00      -1.05895E+03       0.00000E+00      -2.84283E+05       0.00000E+00      -8.70603E+02      -2.24433E+05       0.00000E+00       2.67657E+06
       3994   0.99850E+02       4.98432E+03       0.00000E+00      -1.60859E+02       0.00000E+00       1.45388E+04       0.00000E+00       5.01453E+03       0.00000E+00      -1.80060E+04       0.00000E+00      -1.74808E+02      -1.93882E+03       0.00000E+00      -1.07626E+03       0.00000E+00      -2.85245E+05       0.00000E+00      -8.83248E+02      -2.24461E+05       0.00000E+00       2.73102E+06
       3995   0.99875E+02       5.15660E+03       0.00000E+00      -1.62874E+02       0.00000E+00       1.41663E+04       0.00000E+00       5.18809E+03       0.00000E+00      -1.76750E+04       0.00000E+00      -1.77445E+02      -1.94694E+03       0.00000E+00      -1.09087E+03       0.00000E+00      -2.86213E+05       0.00000E+00      -8.94475E+02      -2.24695E+05       0.00000E+00       2.78514E+06
       3996   0.99900E+02       5.29459E+03       0.00000E+00      -1.64528E+02       0.00000E+00       1.39162E+04       0.00000E+00       5.32608E+03       0.00000E+00      -1.74674E+04       0.00000E+00      -1.79708E+02      -1.95110E+03       0.00000E+00      -1.10298E+03       0.00000E+00      -2.86851E+05       0.00000E+00      -9.03248E+02      -2.24657E+05       0.00000E+00       2.82303E+06
       3997   0.99925E+02       5.40751E+03       0.00000E+00      -1.65816E+02       0.00000E+00       1.36590E+04       0.00000E+00       5.44005E+03       0.00000E+00      -1.72374E+04       0.00000E+00      -1.81365E+02      -1.95694E+03       0.00000E+00      -1.11232E+03       0.00000E+00      -2.87500E+05       0.00000E+00      -9.10532E+02      -2.24862E+05       0.00000E+00       2.85959E+06
       3998   0.99950E+02       5.48403E+03       0.00000E+00      -1.66738E+02       0.00000E+00       1.35291E+04       0.00000E+00       5.51680E+03       0.00000E+00      -1.71356E+04       0.00000E+00      -1.82646E+02      -1.95878E+03       0.00000E+00      -1.11912E+03       0.00000E+00      -2.87834E+05       0.00000E+00      -9.15344E+02      -2.24788E+05       0.00000E+00       2.87965E+06
       3999   0.99975E+02       5.53460E+03       0.00000E+00      -1.67290E+02       0.00000E+00       1.34006E+04       0.00000E+00       5.56767E+03       0.00000E+00      -1.70141E+04       0.00000E+00      -1.83326E+02      -1.96196E+03       0.00000E+00      -1.12310E+03       0.00000E+00      -2.88142E+05       0.00000E+00      -9.18603E+02      -2.24941E+05       0.00000E+00       2.89743E+06
       4000   0.10000E+03       5.54829E+03       0.00000E+00      -1.67476E+02       0.00000E+00       1.34001E+04       0.00000E+00       5.58106E+03       0.00000E+00      -1.70230E+04       0.00000E+00      -1.83628E+02      -1.96122E+03       0.00000E+00      -1.12451E+03       0.00000E+00      -2.88162E+05       0.00000E+00      -9.19376E+02      -2.24821E+05       0.00000E+00       2.89853E+06

This summary file was closed on 26-Jan-2018 at 21:16:27.

