
This summary information was generated by ElastoDyn (v1.04.00a-bjj, 26-Jul-2016) on 26-Jan-2018 at 21:16:26.


Turbine features:

            Upwind, three-bladed rotor with rigid hub.
            The model has 20 of 24 DOFs active (enabled) at start-up.
 Enabled    Platform horizontal surge translation DOF 
 Enabled    Platform horizontal sway translation DOF 
 Enabled    Platform vertical heave translation DOF 
 Enabled    Platform roll tilt rotation DOF 
 Enabled    Platform pitch tilt rotation DOF 
 Enabled    Platform yaw rotation DOF 
 Enabled    1st tower fore-aft bending mode DOF 
 Enabled    1st tower side-to-side bending mode DOF 
 Enabled    2nd tower fore-aft bending mode DOF 
 Enabled    2nd tower side-to-side bending mode DOF 
 Disabled   Nacelle yaw DOF 
 Disabled   Rotor-furl DOF 
 Disabled   Variable speed generator DOF 
 Enabled    Drivetrain rotational-flexibility DOF 
 Disabled   Tail-furl DOF 
 Enabled    1st flapwise bending-mode DOF of blade 1 
 Enabled    1st edgewise bending-mode DOF of blade 1 
 Enabled    2nd flapwise bending-mode DOF of blade 1 
 Enabled    1st flapwise bending-mode DOF of blade 2 
 Enabled    1st edgewise bending-mode DOF of blade 2 
 Enabled    2nd flapwise bending-mode DOF of blade 2 
 Enabled    1st flapwise bending-mode DOF of blade 3 
 Enabled    1st edgewise bending-mode DOF of blade 3 
 Enabled    2nd flapwise bending-mode DOF of blade 3 


Time steps:

    Structural            (s)        0.00250000


Some calculated parameters:

    Hub-Height            (m)           118.999
    Flexible Tower Length (m)           115.630
    Flexible Blade Length (m)            86.400


Rotor mass properties:

    Rotor Mass            (kg)       230717.031
    Rotor Inertia         (kg-m^2)156348016.000
                                        Blade 1      Blade 2      Blade 3
                                        -------      -------      -------
    Mass                  (kg)        41732.340    41732.340    41732.340
    Second Mass Moment    (kg-m^2) 45671252.000 45671252.000 45671252.000
    First Mass Moment     (kg-m)    1090742.250  1090742.250  1090742.250
    Center of Mass        (m)            26.137       26.137       26.137


Additional mass properties:

    Tower-top Mass        (kg)       676723.000
    Tower Mass            (kg)      1890600.000
    Platform Mass         (kg)     21075400.000
    Mass Incl. Platform   (kg)     23642724.000


Interpolated tower properties:

Node  TwFract   HNodes  DHNodes  TMassDen    FAStiff    SSStiff
 (-)      (-)      (m)      (m)    (kg/m)     (Nm^2)     (Nm^2)
   1    0.009    1.071    2.141 57896.176  9.880E+12  9.880E+12
   2    0.028    3.212    2.141 57896.176  9.880E+12  9.880E+12
   3    0.046    5.353    2.141 57896.176  9.880E+12  9.880E+12
   4    0.065    7.495    2.141 57896.176  9.880E+12  9.880E+12
   5    0.083    9.636    2.141 57896.176  9.880E+12  9.880E+12
   6    0.102   11.777    2.141 22216.025  9.117E+12  9.117E+12
   7    0.120   13.918    2.141 21971.312  8.820E+12  8.820E+12
   8    0.139   16.060    2.141 21438.838  8.417E+12  8.417E+12
   9    0.157   18.201    2.141 21197.387  8.135E+12  8.135E+12
  10    0.176   20.342    2.141 20393.275  7.653E+12  7.653E+12
  11    0.194   22.484    2.141 20158.303  7.390E+12  7.390E+12
  12    0.213   24.625    2.141 19374.080  6.943E+12  6.943E+12
  13    0.231   26.766    2.141 19146.271  6.698E+12  6.698E+12
  14    0.250   28.907    2.141 18381.455  6.283E+12  6.283E+12
  15    0.269   31.049    2.141 17629.363  5.883E+12  5.883E+12
  16    0.287   33.190    2.141 17413.957  5.671E+12  5.671E+12
  17    0.306   35.331    2.141 16939.676  5.381E+12  5.381E+12
  18    0.324   37.473    2.141 16727.592  5.182E+12  5.182E+12
  19    0.343   39.614    2.141 16010.593  4.837E+12  4.837E+12
  20    0.361   41.755    2.141 15804.977  4.653E+12  4.653E+12
  21    0.380   43.897    2.141 15107.662  4.335E+12  4.335E+12
  22    0.398   46.038    2.141 14909.126  4.166E+12  4.166E+12
  23    0.417   48.179    2.141 14231.360  3.874E+12  3.874E+12
  24    0.435   50.320    2.141 14039.350  3.718E+12  3.718E+12
  25    0.454   52.462    2.141 13380.421  3.450E+12  3.450E+12
  26    0.472   54.603    2.141 12964.377  3.250E+12  3.250E+12
  27    0.491   56.744    2.141 12781.608  3.115E+12  3.115E+12
  28    0.509   58.886    2.141 12151.810  2.878E+12  2.878E+12
  29    0.528   61.027    2.141 11976.046  2.756E+12  2.756E+12
  30    0.546   63.168    2.141 11365.942  2.540E+12  2.540E+12
  31    0.565   65.310    2.141 11196.688  2.429E+12  2.429E+12
  32    0.583   67.451    2.141 10605.656  2.233E+12  2.233E+12
  33    0.602   69.592    2.141 10442.470  2.131E+12  2.131E+12
  34    0.620   71.733    2.141  9870.618  1.953E+12  1.953E+12
  35    0.639   73.875    2.141  9713.970  1.861E+12  1.861E+12
  36    0.657   76.016    2.141  9359.809  1.737E+12  1.737E+12
  37    0.676   78.157    2.141  8817.413  1.583E+12  1.583E+12
  38    0.694   80.299    2.141  8670.952  1.507E+12  1.507E+12
  39    0.713   82.440    2.141  8147.790  1.368E+12  1.368E+12
  40    0.731   84.581    2.141  8007.448  1.299E+12  1.299E+12
  41    0.750   86.722    2.141  7503.343  1.176E+12  1.176E+12
  42    0.769   88.864    2.141  7369.567  1.114E+12  1.114E+12
  43    0.787   91.005    2.141  6884.838  1.004E+12  1.004E+12
  44    0.806   93.146    2.141  6757.552  9.493E+11  9.493E+11
  45    0.824   95.288    2.141  6461.477  8.744E+11  8.744E+11
  46    0.843   97.429    2.141  6337.799  8.247E+11  8.247E+11
  47    0.861   99.570    2.141  5888.944  7.376E+11  7.376E+11
  48    0.880  101.712    2.141  5771.785  6.938E+11  6.938E+11
  49    0.898  103.853    2.141  5341.949  6.173E+11  6.173E+11
  50    0.917  105.994    2.141  4924.948  5.457E+11  5.457E+11
  51    0.935  108.135    2.141  4820.500  5.121E+11  5.121E+11
  52    0.954  110.277    2.141  4422.945  4.499E+11  4.499E+11
  53    0.972  112.418    2.141  4325.312  4.209E+11  4.209E+11
  54    0.991  114.559    2.141  4087.719  3.799E+11  3.799E+11


Interpolated blade 1 properties:

Node  BlFract   RNodes  DRNodes PitchAxis  StrcTwst  BMassDen    FlpStff    EdgStff
 (-)      (-)      (m)      (m)       (-)     (deg)    (kg/m)     (Nm^2)     (Nm^2)
   1    0.010    3.647    1.694     0.000     0.000  1190.382  6.200E+10  6.106E+10
   2    0.029    5.341    1.694     0.000     0.000  1195.006  6.243E+10  6.112E+10
   3    0.049    7.035    1.694     0.000     0.000  1193.896  6.219E+10  6.026E+10
   4    0.069    8.729    1.694     0.003     0.003  1156.156  5.867E+10  5.675E+10
   5    0.088   10.424    1.694     0.010    10.523  1097.797  5.199E+10  5.251E+10
   6    0.108   12.118    1.694     0.028    41.228  1032.413  4.222E+10  4.930E+10
   7    0.127   13.812    1.694     0.059    33.804   961.007  3.426E+10  4.268E+10
   8    0.147   15.506    1.694     0.095    24.460   901.251  2.732E+10  3.710E+10
   9    0.167   17.200    1.694     0.134    17.993   864.166  2.197E+10  3.336E+10
  10    0.186   18.894    1.694     0.162    13.444   827.752  1.803E+10  3.069E+10
  11    0.206   20.588    1.694     0.179    10.869   773.263  1.468E+10  2.740E+10
  12    0.225   22.282    1.694     0.178     8.839   734.673  1.261E+10  2.532E+10
  13    0.245   23.976    1.694     0.189     7.616   690.942  1.080E+10  2.292E+10
  14    0.265   25.671    1.694     0.200     6.802   655.365  9.354E+09  2.068E+10
  15    0.284   27.365    1.694     0.208     6.113   626.860  8.179E+09  1.883E+10
  16    0.304   29.059    1.694     0.214     4.954   595.059  6.950E+09  1.875E+10
  17    0.324   30.753    1.694     0.215     4.556   581.872  6.151E+09  1.774E+10
  18    0.343   32.447    1.694     0.220     4.276   567.595  5.462E+09  1.662E+10
  19    0.363   34.141    1.694     0.221     4.117   550.259  4.865E+09  1.521E+10
  20    0.382   35.835    1.694     0.223     3.952   532.101  4.332E+09  1.374E+10
  21    0.402   37.529    1.694     0.225     3.692   513.239  3.862E+09  1.260E+10
  22    0.422   39.224    1.694     0.224     3.401   497.354  3.425E+09  1.164E+10
  23    0.441   40.918    1.694     0.225     3.140   480.791  3.031E+09  1.064E+10
  24    0.461   42.612    1.694     0.224     2.924   463.729  2.675E+09  9.632E+09
  25    0.480   44.306    1.694     0.224     2.693   445.233  2.354E+09  8.677E+09
  26    0.500   46.000    1.694     0.224     2.458   428.620  2.071E+09  7.864E+09
  27    0.520   47.694    1.694     0.223     2.293   406.630  1.813E+09  6.877E+09
  28    0.539   49.388    1.694     0.223     2.100   389.023  1.588E+09  6.134E+09
  29    0.559   51.082    1.694     0.223     1.909   370.917  1.395E+09  5.496E+09
  30    0.578   52.776    1.694     0.223     1.744   352.226  1.218E+09  4.853E+09
  31    0.598   54.471    1.694     0.222     1.606   333.151  1.066E+09  4.216E+09
  32    0.618   56.165    1.694     0.222     1.471   316.171  9.331E+08  3.706E+09
  33    0.637   57.859    1.694     0.222     1.340   298.867  8.156E+08  3.240E+09
  34    0.657   59.553    1.694     0.221     1.231   280.254  7.103E+08  2.792E+09
  35    0.676   61.247    1.694     0.220     1.138   263.552  6.166E+08  2.418E+09
  36    0.696   62.941    1.694     0.220     1.045   246.326  5.346E+08  2.078E+09
  37    0.716   64.635    1.694     0.219     0.956   228.906  4.605E+08  1.780E+09
  38    0.735   66.329    1.694     0.217     0.892   211.525  3.929E+08  1.516E+09
  39    0.755   68.024    1.694     0.216     0.822   194.454  3.322E+08  1.282E+09
  40    0.775   69.718    1.694     0.215     0.760   179.041  2.788E+08  1.089E+09
  41    0.794   71.412    1.694     0.215     0.707   163.156  2.322E+08  9.109E+08
  42    0.814   73.106    1.694     0.214     0.661   147.773  1.920E+08  7.583E+08
  43    0.833   74.800    1.694     0.212     0.629   133.508  1.573E+08  6.304E+08
  44    0.853   76.494    1.694     0.210     0.588   118.051  1.261E+08  5.159E+08
  45    0.873   78.188    1.694     0.208     0.558   103.355  9.867E+07  4.195E+08
  46    0.892   79.882    1.694     0.206     0.551    90.360  7.610E+07  3.354E+08
  47    0.912   81.576    1.694     0.203     0.563    77.585  5.671E+07  2.694E+08
  48    0.931   83.271    1.694     0.201     0.563    63.780  3.908E+07  1.969E+08
  49    0.951   84.965    1.694     0.199     0.621    50.126  2.398E+07  1.378E+08
  50    0.971   86.659    1.694     0.196     0.718    36.336  1.169E+07  8.399E+07
  51    0.990   88.353    1.694     0.203     0.849    21.820  3.297E+06  3.168E+07


Interpolated blade 2 properties:

Node  BlFract   RNodes  DRNodes PitchAxis  StrcTwst  BMassDen    FlpStff    EdgStff
 (-)      (-)      (m)      (m)       (-)     (deg)    (kg/m)     (Nm^2)     (Nm^2)
   1    0.010    3.647    1.694     0.000     0.000  1190.382  6.200E+10  6.106E+10
   2    0.029    5.341    1.694     0.000     0.000  1195.006  6.243E+10  6.112E+10
   3    0.049    7.035    1.694     0.000     0.000  1193.896  6.219E+10  6.026E+10
   4    0.069    8.729    1.694     0.003     0.003  1156.156  5.867E+10  5.675E+10
   5    0.088   10.424    1.694     0.010    10.523  1097.797  5.199E+10  5.251E+10
   6    0.108   12.118    1.694     0.028    41.228  1032.413  4.222E+10  4.930E+10
   7    0.127   13.812    1.694     0.059    33.804   961.007  3.426E+10  4.268E+10
   8    0.147   15.506    1.694     0.095    24.460   901.251  2.732E+10  3.710E+10
   9    0.167   17.200    1.694     0.134    17.993   864.166  2.197E+10  3.336E+10
  10    0.186   18.894    1.694     0.162    13.444   827.752  1.803E+10  3.069E+10
  11    0.206   20.588    1.694     0.179    10.869   773.263  1.468E+10  2.740E+10
  12    0.225   22.282    1.694     0.178     8.839   734.673  1.261E+10  2.532E+10
  13    0.245   23.976    1.694     0.189     7.616   690.942  1.080E+10  2.292E+10
  14    0.265   25.671    1.694     0.200     6.802   655.365  9.354E+09  2.068E+10
  15    0.284   27.365    1.694     0.208     6.113   626.860  8.179E+09  1.883E+10
  16    0.304   29.059    1.694     0.214     4.954   595.059  6.950E+09  1.875E+10
  17    0.324   30.753    1.694     0.215     4.556   581.872  6.151E+09  1.774E+10
  18    0.343   32.447    1.694     0.220     4.276   567.595  5.462E+09  1.662E+10
  19    0.363   34.141    1.694     0.221     4.117   550.259  4.865E+09  1.521E+10
  20    0.382   35.835    1.694     0.223     3.952   532.101  4.332E+09  1.374E+10
  21    0.402   37.529    1.694     0.225     3.692   513.239  3.862E+09  1.260E+10
  22    0.422   39.224    1.694     0.224     3.401   497.354  3.425E+09  1.164E+10
  23    0.441   40.918    1.694     0.225     3.140   480.791  3.031E+09  1.064E+10
  24    0.461   42.612    1.694     0.224     2.924   463.729  2.675E+09  9.632E+09
  25    0.480   44.306    1.694     0.224     2.693   445.233  2.354E+09  8.677E+09
  26    0.500   46.000    1.694     0.224     2.458   428.620  2.071E+09  7.864E+09
  27    0.520   47.694    1.694     0.223     2.293   406.630  1.813E+09  6.877E+09
  28    0.539   49.388    1.694     0.223     2.100   389.023  1.588E+09  6.134E+09
  29    0.559   51.082    1.694     0.223     1.909   370.917  1.395E+09  5.496E+09
  30    0.578   52.776    1.694     0.223     1.744   352.226  1.218E+09  4.853E+09
  31    0.598   54.471    1.694     0.222     1.606   333.151  1.066E+09  4.216E+09
  32    0.618   56.165    1.694     0.222     1.471   316.171  9.331E+08  3.706E+09
  33    0.637   57.859    1.694     0.222     1.340   298.867  8.156E+08  3.240E+09
  34    0.657   59.553    1.694     0.221     1.231   280.254  7.103E+08  2.792E+09
  35    0.676   61.247    1.694     0.220     1.138   263.552  6.166E+08  2.418E+09
  36    0.696   62.941    1.694     0.220     1.045   246.326  5.346E+08  2.078E+09
  37    0.716   64.635    1.694     0.219     0.956   228.906  4.605E+08  1.780E+09
  38    0.735   66.329    1.694     0.217     0.892   211.525  3.929E+08  1.516E+09
  39    0.755   68.024    1.694     0.216     0.822   194.454  3.322E+08  1.282E+09
  40    0.775   69.718    1.694     0.215     0.760   179.041  2.788E+08  1.089E+09
  41    0.794   71.412    1.694     0.215     0.707   163.156  2.322E+08  9.109E+08
  42    0.814   73.106    1.694     0.214     0.661   147.773  1.920E+08  7.583E+08
  43    0.833   74.800    1.694     0.212     0.629   133.508  1.573E+08  6.304E+08
  44    0.853   76.494    1.694     0.210     0.588   118.051  1.261E+08  5.159E+08
  45    0.873   78.188    1.694     0.208     0.558   103.355  9.867E+07  4.195E+08
  46    0.892   79.882    1.694     0.206     0.551    90.360  7.610E+07  3.354E+08
  47    0.912   81.576    1.694     0.203     0.563    77.585  5.671E+07  2.694E+08
  48    0.931   83.271    1.694     0.201     0.563    63.780  3.908E+07  1.969E+08
  49    0.951   84.965    1.694     0.199     0.621    50.126  2.398E+07  1.378E+08
  50    0.971   86.659    1.694     0.196     0.718    36.336  1.169E+07  8.399E+07
  51    0.990   88.353    1.694     0.203     0.849    21.820  3.297E+06  3.168E+07


Interpolated blade 3 properties:

Node  BlFract   RNodes  DRNodes PitchAxis  StrcTwst  BMassDen    FlpStff    EdgStff
 (-)      (-)      (m)      (m)       (-)     (deg)    (kg/m)     (Nm^2)     (Nm^2)
   1    0.010    3.647    1.694     0.000     0.000  1190.382  6.200E+10  6.106E+10
   2    0.029    5.341    1.694     0.000     0.000  1195.006  6.243E+10  6.112E+10
   3    0.049    7.035    1.694     0.000     0.000  1193.896  6.219E+10  6.026E+10
   4    0.069    8.729    1.694     0.003     0.003  1156.156  5.867E+10  5.675E+10
   5    0.088   10.424    1.694     0.010    10.523  1097.797  5.199E+10  5.251E+10
   6    0.108   12.118    1.694     0.028    41.228  1032.413  4.222E+10  4.930E+10
   7    0.127   13.812    1.694     0.059    33.804   961.007  3.426E+10  4.268E+10
   8    0.147   15.506    1.694     0.095    24.460   901.251  2.732E+10  3.710E+10
   9    0.167   17.200    1.694     0.134    17.993   864.166  2.197E+10  3.336E+10
  10    0.186   18.894    1.694     0.162    13.444   827.752  1.803E+10  3.069E+10
  11    0.206   20.588    1.694     0.179    10.869   773.263  1.468E+10  2.740E+10
  12    0.225   22.282    1.694     0.178     8.839   734.673  1.261E+10  2.532E+10
  13    0.245   23.976    1.694     0.189     7.616   690.942  1.080E+10  2.292E+10
  14    0.265   25.671    1.694     0.200     6.802   655.365  9.354E+09  2.068E+10
  15    0.284   27.365    1.694     0.208     6.113   626.860  8.179E+09  1.883E+10
  16    0.304   29.059    1.694     0.214     4.954   595.059  6.950E+09  1.875E+10
  17    0.324   30.753    1.694     0.215     4.556   581.872  6.151E+09  1.774E+10
  18    0.343   32.447    1.694     0.220     4.276   567.595  5.462E+09  1.662E+10
  19    0.363   34.141    1.694     0.221     4.117   550.259  4.865E+09  1.521E+10
  20    0.382   35.835    1.694     0.223     3.952   532.101  4.332E+09  1.374E+10
  21    0.402   37.529    1.694     0.225     3.692   513.239  3.862E+09  1.260E+10
  22    0.422   39.224    1.694     0.224     3.401   497.354  3.425E+09  1.164E+10
  23    0.441   40.918    1.694     0.225     3.140   480.791  3.031E+09  1.064E+10
  24    0.461   42.612    1.694     0.224     2.924   463.729  2.675E+09  9.632E+09
  25    0.480   44.306    1.694     0.224     2.693   445.233  2.354E+09  8.677E+09
  26    0.500   46.000    1.694     0.224     2.458   428.620  2.071E+09  7.864E+09
  27    0.520   47.694    1.694     0.223     2.293   406.630  1.813E+09  6.877E+09
  28    0.539   49.388    1.694     0.223     2.100   389.023  1.588E+09  6.134E+09
  29    0.559   51.082    1.694     0.223     1.909   370.917  1.395E+09  5.496E+09
  30    0.578   52.776    1.694     0.223     1.744   352.226  1.218E+09  4.853E+09
  31    0.598   54.471    1.694     0.222     1.606   333.151  1.066E+09  4.216E+09
  32    0.618   56.165    1.694     0.222     1.471   316.171  9.331E+08  3.706E+09
  33    0.637   57.859    1.694     0.222     1.340   298.867  8.156E+08  3.240E+09
  34    0.657   59.553    1.694     0.221     1.231   280.254  7.103E+08  2.792E+09
  35    0.676   61.247    1.694     0.220     1.138   263.552  6.166E+08  2.418E+09
  36    0.696   62.941    1.694     0.220     1.045   246.326  5.346E+08  2.078E+09
  37    0.716   64.635    1.694     0.219     0.956   228.906  4.605E+08  1.780E+09
  38    0.735   66.329    1.694     0.217     0.892   211.525  3.929E+08  1.516E+09
  39    0.755   68.024    1.694     0.216     0.822   194.454  3.322E+08  1.282E+09
  40    0.775   69.718    1.694     0.215     0.760   179.041  2.788E+08  1.089E+09
  41    0.794   71.412    1.694     0.215     0.707   163.156  2.322E+08  9.109E+08
  42    0.814   73.106    1.694     0.214     0.661   147.773  1.920E+08  7.583E+08
  43    0.833   74.800    1.694     0.212     0.629   133.508  1.573E+08  6.304E+08
  44    0.853   76.494    1.694     0.210     0.588   118.051  1.261E+08  5.159E+08
  45    0.873   78.188    1.694     0.208     0.558   103.355  9.867E+07  4.195E+08
  46    0.892   79.882    1.694     0.206     0.551    90.360  7.610E+07  3.354E+08
  47    0.912   81.576    1.694     0.203     0.563    77.585  5.671E+07  2.694E+08
  48    0.931   83.271    1.694     0.201     0.563    63.780  3.908E+07  1.969E+08
  49    0.951   84.965    1.694     0.199     0.621    50.126  2.398E+07  1.378E+08
  50    0.971   86.659    1.694     0.196     0.718    36.336  1.169E+07  8.399E+07
  51    0.990   88.353    1.694     0.203     0.849    21.820  3.297E+06  3.168E+07


Requested Outputs:


  Col  Parameter  Units
  ---  ---------  -----
   0   Time       (s)       
   1   TipDxc1    (m)       
   2   TipDyc1    (m)       
   3   TipDxc2    (m)       
   4   TipDyc2    (m)       
   5   TipDxc3    (m)       
   6   TipDyc3    (m)       
   7   BldPitch1  (deg)     
   8   BldPitch2  (deg)     
   9   BldPitch3  (deg)     
  10   PtfmSurge  (m)       
  11   PtfmSway   (m)       
  12   PtfmHeave  (m)       
  13   PtfmRoll   (deg)     
  14   PtfmPitch  (deg)     
  15   PtfmYaw    (deg)     
  16   Azimuth    (deg)     
  17   RotSpeed   (rpm)     
  18   RotAccel   (deg/s^2) 
  19   LSSGagP    (deg)     
  20   LSSGagV    (rpm)     
  21   LSSGagA    (deg/s^2) 
  22   GenSpeed   (rpm)     
  23   GenAccel   (deg/s^2) 
  24   YawPos     (deg)     
  25   YawRate    (deg/s)   
  26   YawAccel   (deg/s^2) 
  27   YawBrTDxp  (m)       
  28   YawBrTDyp  (m)       
  29   YawBrTDzp  (m)       
  30   YawBrTDxt  (m)       
  31   YawBrTDyt  (m)       
  32   YawBrTDzt  (m)       
  33   YawBrTAxp  (m/s^2)   
  34   YawBrTAyp  (m/s^2)   
  35   YawBrTAzp  (m/s^2)   
  36   RootFxc1   (kN)      
  37   RootFyc1   (kN)      
  38   RootFzc1   (kN)      
  39   RootFxb1   (kN)      
  40   RootFyb1   (kN)      
  41   RootMxc1   (kN·m)    
  42   RootMyc1   (kN·m)    
  43   RootMzc1   (kN·m)    
  44   RootMxb1   (kN·m)    
  45   RootMyb1   (kN·m)    
  46   RootFxc2   (kN)      
  47   RootFyc2   (kN)      
  48   RootFzc2   (kN)      
  49   RootFxb2   (kN)      
  50   RootFyb2   (kN)      
  51   RootMxc2   (kN·m)    
  52   RootMyc2   (kN·m)    
  53   RootMzc2   (kN·m)    
  54   RootMxb2   (kN·m)    
  55   RootMyb2   (kN·m)    
  56   RootFxc3   (kN)      
  57   RootFyc3   (kN)      
  58   RootFzc3   (kN)      
  59   RootFxb3   (kN)      
  60   RootFyb3   (kN)      
  61   RootMxc3   (kN·m)    
  62   RootMyc3   (kN·m)    
  63   RootMzc3   (kN·m)    
  64   RootMxb3   (kN·m)    
  65   RootMyb3   (kN·m)    
  66   RotThrust  (kN)      
  67   LSShftFya  (kN)      
  68   LSShftFza  (kN)      
  69   LSShftFys  (kN)      
  70   LSShftFzs  (kN)      
  71   LSShftTq   (kN·m)    
  72   LSSTipMya  (kN·m)    
  73   LSSTipMza  (kN·m)    
  74   LSSTipMys  (kN·m)    
  75   LSSTipMzs  (kN·m)    
  76   LSSGagMya  (kN·m)    
  77   LSSGagMza  (kN·m)    
  78   LSSGagMys  (kN·m)    
  79   LSSGagMzs  (kN·m)    
  80   HSShftTq   (kN·m)    
  81   HSShftPwr  (kW)      
  82   HSSBrTq    (kN·m)    
  83   YawBrFxn   (kN)      
  84   YawBrFyn   (kN)      
  85   YawBrFzn   (kN)      
  86   YawBrFxp   (kN)      
  87   YawBrFyp   (kN)      
  88   YawBrMxn   (kN·m)    
  89   YawBrMyn   (kN·m)    
  90   YawBrMzn   (kN·m)    
  91   YawBrMxp   (kN·m)    
  92   YawBrMyp   (kN·m)    
  93   TwrBsFxt   (kN)      
  94   TwrBsFyt   (kN)      
  95   TwrBsFzt   (kN)      
  96   TwrBsMxt   (kN·m)    
  97   TwrBsMyt   (kN·m)    
  98   TwrBsMzt   (kN·m)    
  99   NcIMUTAxs  (m/s^2)   
 100   NcIMUTAys  (m/s^2)   
