** Materials
***************************************
** Abaqus Syntax:
** *ELASTIC, TYPE=ENGINEERING CONSTANTS
** E1, E2, E3, nu12, nu13, nu23, G12, G13
** G23
**
**
*MATERIAL, NAME=UNIAX
*DENSITY
1915.5
*ELASTIC, TYPE=ENGINEERING CONSTANTS
41.63E9,  14.93E9,  13.42583E9,  0.241,  0.2675,  0.3301,  5.047E9,  5.04698E9,
5.04698E9
**
*MATERIAL, NAME=BIAX
*DENSITY
1845.0
*ELASTIC, TYPE=ENGINEERING CONSTANTS
13.92E9,  13.92E9,  12.09901E9, 0.533,  0.2750,   0.3329,  11.50E9,   4.53864E9,
4.53864E9
**
*MATERIAL, NAME=TRIAX
*DENSITY
1845.0
*ELASTIC, TYPE=ENGINEERING CONSTANTS
21.79E9,  14.67E9,  12.09901E9, 0.478,  0.2750,   0.3329,  9.413E9,   4.53864E9,
4.53864E9
**
*MATERIAL, NAME=BALSA
*DENSITY
110.0
*ELASTIC, TYPE=ENGINEERING CONSTANTS
0.050E9,  0.050E9,  2.730E9,  0.5,    0.013,  0.013,  0.01667E9, 0.150E9,  
0.150E9  
**
*MATERIAL, NAME=TE_GLUE_MAT
*DENSITY
1.0,
*ELASTIC, TYPE=ISO
2.0E9, 0.3
