
This summary information was generated by ElastoDyn (v1.04.00a-bjj, 26-Jul-2016) on 04-Jun-2018 at 11:29:45.


Turbine features:

            Upwind, three-bladed rotor with rigid hub.
            The model has 21 of 24 DOFs active (enabled) at start-up.
 Enabled    Platform horizontal surge translation DOF 
 Enabled    Platform horizontal sway translation DOF 
 Enabled    Platform vertical heave translation DOF 
 Enabled    Platform roll tilt rotation DOF 
 Enabled    Platform pitch tilt rotation DOF 
 Enabled    Platform yaw rotation DOF 
 Enabled    1st tower fore-aft bending mode DOF 
 Enabled    1st tower side-to-side bending mode DOF 
 Enabled    2nd tower fore-aft bending mode DOF 
 Enabled    2nd tower side-to-side bending mode DOF 
 Disabled   Nacelle yaw DOF 
 Disabled   Rotor-furl DOF 
 Enabled    Variable speed generator DOF 
 Enabled    Drivetrain rotational-flexibility DOF 
 Disabled   Tail-furl DOF 
 Enabled    1st flapwise bending-mode DOF of blade 1 
 Enabled    1st edgewise bending-mode DOF of blade 1 
 Enabled    2nd flapwise bending-mode DOF of blade 1 
 Enabled    1st flapwise bending-mode DOF of blade 2 
 Enabled    1st edgewise bending-mode DOF of blade 2 
 Enabled    2nd flapwise bending-mode DOF of blade 2 
 Enabled    1st flapwise bending-mode DOF of blade 3 
 Enabled    1st edgewise bending-mode DOF of blade 3 
 Enabled    2nd flapwise bending-mode DOF of blade 3 


Time steps:

    Structural            (s)        0.00250000


Some calculated parameters:

    Hub-Height            (m)           118.999
    Flexible Tower Length (m)           115.630
    Flexible Blade Length (m)            86.400


Rotor mass properties:

    Rotor Mass            (kg)       230598.578
    Rotor Inertia         (kg-m^2)156243136.000
                                        Blade 1      Blade 2      Blade 3
                                        -------      -------      -------
    Mass                  (kg)        41692.855    41692.855    41692.855
    Second Mass Moment    (kg-m^2) 45639992.000 45639992.000 45639992.000
    First Mass Moment     (kg-m)    1090124.250  1090124.250  1090124.250
    Center of Mass        (m)            26.147       26.147       26.147


Additional mass properties:

    Tower-top Mass        (kg)       676604.562
    Tower Mass            (kg)      1890600.000
    Platform Mass         (kg)     21075400.000
    Mass Incl. Platform   (kg)     23642604.000


Interpolated tower properties:

Node  TwFract   HNodes  DHNodes  TMassDen    FAStiff    SSStiff
 (-)      (-)      (m)      (m)    (kg/m)     (Nm^2)     (Nm^2)
   1    0.009    1.071    2.141 57896.176  9.880E+12  9.880E+12
   2    0.028    3.212    2.141 57896.176  9.880E+12  9.880E+12
   3    0.046    5.353    2.141 57896.176  9.880E+12  9.880E+12
   4    0.065    7.495    2.141 57896.176  9.880E+12  9.880E+12
   5    0.083    9.636    2.141 57896.176  9.880E+12  9.880E+12
   6    0.102   11.777    2.141 22216.025  9.117E+12  9.117E+12
   7    0.120   13.918    2.141 21971.312  8.820E+12  8.820E+12
   8    0.139   16.060    2.141 21438.838  8.417E+12  8.417E+12
   9    0.157   18.201    2.141 21197.387  8.135E+12  8.135E+12
  10    0.176   20.342    2.141 20393.275  7.653E+12  7.653E+12
  11    0.194   22.484    2.141 20158.303  7.390E+12  7.390E+12
  12    0.213   24.625    2.141 19374.080  6.943E+12  6.943E+12
  13    0.231   26.766    2.141 19146.271  6.698E+12  6.698E+12
  14    0.250   28.907    2.141 18381.455  6.283E+12  6.283E+12
  15    0.269   31.049    2.141 17629.363  5.883E+12  5.883E+12
  16    0.287   33.190    2.141 17413.957  5.671E+12  5.671E+12
  17    0.306   35.331    2.141 16939.676  5.381E+12  5.381E+12
  18    0.324   37.473    2.141 16727.592  5.182E+12  5.182E+12
  19    0.343   39.614    2.141 16010.593  4.837E+12  4.837E+12
  20    0.361   41.755    2.141 15804.977  4.653E+12  4.653E+12
  21    0.380   43.897    2.141 15107.662  4.335E+12  4.335E+12
  22    0.398   46.038    2.141 14909.126  4.166E+12  4.166E+12
  23    0.417   48.179    2.141 14231.360  3.874E+12  3.874E+12
  24    0.435   50.320    2.141 14039.350  3.718E+12  3.718E+12
  25    0.454   52.462    2.141 13380.421  3.450E+12  3.450E+12
  26    0.472   54.603    2.141 12964.377  3.250E+12  3.250E+12
  27    0.491   56.744    2.141 12781.608  3.115E+12  3.115E+12
  28    0.509   58.886    2.141 12151.810  2.878E+12  2.878E+12
  29    0.528   61.027    2.141 11976.046  2.756E+12  2.756E+12
  30    0.546   63.168    2.141 11365.942  2.540E+12  2.540E+12
  31    0.565   65.310    2.141 11196.688  2.429E+12  2.429E+12
  32    0.583   67.451    2.141 10605.656  2.233E+12  2.233E+12
  33    0.602   69.592    2.141 10442.470  2.131E+12  2.131E+12
  34    0.620   71.733    2.141  9870.618  1.953E+12  1.953E+12
  35    0.639   73.875    2.141  9713.970  1.861E+12  1.861E+12
  36    0.657   76.016    2.141  9359.809  1.737E+12  1.737E+12
  37    0.676   78.157    2.141  8817.413  1.583E+12  1.583E+12
  38    0.694   80.299    2.141  8670.952  1.507E+12  1.507E+12
  39    0.713   82.440    2.141  8147.790  1.368E+12  1.368E+12
  40    0.731   84.581    2.141  8007.448  1.299E+12  1.299E+12
  41    0.750   86.722    2.141  7503.343  1.176E+12  1.176E+12
  42    0.769   88.864    2.141  7369.567  1.114E+12  1.114E+12
  43    0.787   91.005    2.141  6884.838  1.004E+12  1.004E+12
  44    0.806   93.146    2.141  6757.552  9.493E+11  9.493E+11
  45    0.824   95.288    2.141  6461.477  8.744E+11  8.744E+11
  46    0.843   97.429    2.141  6337.799  8.247E+11  8.247E+11
  47    0.861   99.570    2.141  5888.944  7.376E+11  7.376E+11
  48    0.880  101.712    2.141  5771.785  6.938E+11  6.938E+11
  49    0.898  103.853    2.141  5341.949  6.173E+11  6.173E+11
  50    0.917  105.994    2.141  4924.948  5.457E+11  5.457E+11
  51    0.935  108.135    2.141  4820.500  5.121E+11  5.121E+11
  52    0.954  110.277    2.141  4422.945  4.499E+11  4.499E+11
  53    0.972  112.418    2.141  4325.312  4.209E+11  4.209E+11
  54    0.991  114.559    2.141  4087.719  3.799E+11  3.799E+11


Interpolated blade 1 properties:

Node  BlFract   RNodes  DRNodes PitchAxis  StrcTwst  BMassDen    FlpStff    EdgStff
 (-)      (-)      (m)      (m)       (-)     (deg)    (kg/m)     (Nm^2)     (Nm^2)
   1    0.023    4.800    4.000     0.000     0.000  1191.584  6.217E+10  6.112E+10
   2    0.055    7.512    1.424     0.001     0.000  1185.261  6.140E+10  5.942E+10
   3    0.073    9.119    1.790     0.004     0.005  1143.096  5.740E+10  5.561E+10
   4    0.087   10.275    0.522     0.009     6.847  1103.324  5.289E+10  5.270E+10
   5    0.103   11.658    2.244     0.020    41.079  1051.862  4.452E+10  5.095E+10
   6    0.121   13.258    0.956     0.048    36.690   983.136  3.674E+10  4.473E+10
   7    0.142   15.068    2.664     0.085    26.405   913.058  2.888E+10  3.827E+10
   8    0.165   17.075    1.350     0.132    18.396   866.194  2.228E+10  3.354E+10
   9    0.191   19.267    3.034     0.166    12.872   815.577  1.728E+10  2.995E+10
  10    0.218   21.633    1.698     0.178     9.604   749.548  1.340E+10  2.612E+10
  11    0.247   24.156    3.348     0.190     7.529   687.172  1.065E+10  2.268E+10
  12    0.278   26.823    1.986     0.205     6.333   635.941  8.553E+09  1.942E+10
  13    0.310   29.617    3.602     0.214     4.793   589.990  6.670E+09  1.846E+10
  14    0.344   32.521    2.206     0.220     4.264   566.965  5.432E+09  1.657E+10
  15    0.379   35.519    3.790     0.223     3.984   535.504  4.430E+09  1.401E+10
  16    0.414   38.591    2.354     0.224     3.511   503.075  3.587E+09  1.199E+10
  17    0.450   41.720    3.904     0.225     3.032   472.740  2.858E+09  1.016E+10
  18    0.487   44.886    2.428     0.224     2.613   439.225  2.253E+09  8.379E+09
  19    0.524   48.072    3.944     0.223     2.260   401.390  1.757E+09  6.645E+09
  20    0.561   51.257    2.426     0.223     1.890   368.977  1.375E+09  5.431E+09
  21    0.597   54.423    3.906     0.222     1.610   333.692  1.070E+09  4.234E+09
  22    0.634   57.550    2.348     0.222     1.364   302.193  8.360E+08  3.327E+09
  23    0.669   60.620    3.792     0.220     1.171   269.169  6.493E+08  2.543E+09
  24    0.704   63.615    2.198     0.220     1.006   238.847  5.039E+08  1.942E+09
  25    0.737   66.516    3.604     0.217     0.887   209.515  3.858E+08  1.487E+09
  26    0.770   69.306    1.976     0.216     0.769   182.641  2.909E+08  1.134E+09
  27    0.801   71.968    3.348     0.214     0.685   157.592  2.180E+08  8.542E+08
  28    0.830   74.487    1.690     0.213     0.638   136.352  1.633E+08  6.542E+08
  29    0.857   76.847    3.030     0.210     0.581   114.811  1.199E+08  4.962E+08
  30    0.882   79.034    1.344     0.208     0.543    96.624  8.654E+07  3.697E+08
  31    0.905   81.034    2.656     0.203     0.570    81.998  6.261E+07  2.941E+08
  32    0.926   82.837    0.950     0.202     0.553    67.324  4.317E+07  2.128E+08
  33    0.945   84.431    2.238     0.199     0.591    54.301  2.817E+07  1.543E+08
  34    0.961   85.806    0.512     0.197     0.669    43.544  1.738E+07  1.118E+08
  35    0.974   86.955    1.786     0.196     0.735    33.690  9.982E+06  7.394E+07
  36    0.985   87.870    0.044     0.196     0.788    25.515  4.698E+06  4.290E+07
  37    0.992   88.546    1.308     0.206     0.874    20.363  2.779E+06  2.736E+07


Interpolated blade 2 properties:

Node  BlFract   RNodes  DRNodes PitchAxis  StrcTwst  BMassDen    FlpStff    EdgStff
 (-)      (-)      (m)      (m)       (-)     (deg)    (kg/m)     (Nm^2)     (Nm^2)
   1    0.023    4.800    4.000     0.000     0.000  1191.584  6.217E+10  6.112E+10
   2    0.055    7.512    1.424     0.001     0.000  1185.261  6.140E+10  5.942E+10
   3    0.073    9.119    1.790     0.004     0.005  1143.096  5.740E+10  5.561E+10
   4    0.087   10.275    0.522     0.009     6.847  1103.324  5.289E+10  5.270E+10
   5    0.103   11.658    2.244     0.020    41.079  1051.862  4.452E+10  5.095E+10
   6    0.121   13.258    0.956     0.048    36.690   983.136  3.674E+10  4.473E+10
   7    0.142   15.068    2.664     0.085    26.405   913.058  2.888E+10  3.827E+10
   8    0.165   17.075    1.350     0.132    18.396   866.194  2.228E+10  3.354E+10
   9    0.191   19.267    3.034     0.166    12.872   815.577  1.728E+10  2.995E+10
  10    0.218   21.633    1.698     0.178     9.604   749.548  1.340E+10  2.612E+10
  11    0.247   24.156    3.348     0.190     7.529   687.172  1.065E+10  2.268E+10
  12    0.278   26.823    1.986     0.205     6.333   635.941  8.553E+09  1.942E+10
  13    0.310   29.617    3.602     0.214     4.793   589.990  6.670E+09  1.846E+10
  14    0.344   32.521    2.206     0.220     4.264   566.965  5.432E+09  1.657E+10
  15    0.379   35.519    3.790     0.223     3.984   535.504  4.430E+09  1.401E+10
  16    0.414   38.591    2.354     0.224     3.511   503.075  3.587E+09  1.199E+10
  17    0.450   41.720    3.904     0.225     3.032   472.740  2.858E+09  1.016E+10
  18    0.487   44.886    2.428     0.224     2.613   439.225  2.253E+09  8.379E+09
  19    0.524   48.072    3.944     0.223     2.260   401.390  1.757E+09  6.645E+09
  20    0.561   51.257    2.426     0.223     1.890   368.977  1.375E+09  5.431E+09
  21    0.597   54.423    3.906     0.222     1.610   333.692  1.070E+09  4.234E+09
  22    0.634   57.550    2.348     0.222     1.364   302.193  8.360E+08  3.327E+09
  23    0.669   60.620    3.792     0.220     1.171   269.169  6.493E+08  2.543E+09
  24    0.704   63.615    2.198     0.220     1.006   238.847  5.039E+08  1.942E+09
  25    0.737   66.516    3.604     0.217     0.887   209.515  3.858E+08  1.487E+09
  26    0.770   69.306    1.976     0.216     0.769   182.641  2.909E+08  1.134E+09
  27    0.801   71.968    3.348     0.214     0.685   157.592  2.180E+08  8.542E+08
  28    0.830   74.487    1.690     0.213     0.638   136.352  1.633E+08  6.542E+08
  29    0.857   76.847    3.030     0.210     0.581   114.811  1.199E+08  4.962E+08
  30    0.882   79.034    1.344     0.208     0.543    96.624  8.654E+07  3.697E+08
  31    0.905   81.034    2.656     0.203     0.570    81.998  6.261E+07  2.941E+08
  32    0.926   82.837    0.950     0.202     0.553    67.324  4.317E+07  2.128E+08
  33    0.945   84.431    2.238     0.199     0.591    54.301  2.817E+07  1.543E+08
  34    0.961   85.806    0.512     0.197     0.669    43.544  1.738E+07  1.118E+08
  35    0.974   86.955    1.786     0.196     0.735    33.690  9.982E+06  7.394E+07
  36    0.985   87.870    0.044     0.196     0.788    25.515  4.698E+06  4.290E+07
  37    0.992   88.546    1.308     0.206     0.874    20.363  2.779E+06  2.736E+07


Interpolated blade 3 properties:

Node  BlFract   RNodes  DRNodes PitchAxis  StrcTwst  BMassDen    FlpStff    EdgStff
 (-)      (-)      (m)      (m)       (-)     (deg)    (kg/m)     (Nm^2)     (Nm^2)
   1    0.023    4.800    4.000     0.000     0.000  1191.584  6.217E+10  6.112E+10
   2    0.055    7.512    1.424     0.001     0.000  1185.261  6.140E+10  5.942E+10
   3    0.073    9.119    1.790     0.004     0.005  1143.096  5.740E+10  5.561E+10
   4    0.087   10.275    0.522     0.009     6.847  1103.324  5.289E+10  5.270E+10
   5    0.103   11.658    2.244     0.020    41.079  1051.862  4.452E+10  5.095E+10
   6    0.121   13.258    0.956     0.048    36.690   983.136  3.674E+10  4.473E+10
   7    0.142   15.068    2.664     0.085    26.405   913.058  2.888E+10  3.827E+10
   8    0.165   17.075    1.350     0.132    18.396   866.194  2.228E+10  3.354E+10
   9    0.191   19.267    3.034     0.166    12.872   815.577  1.728E+10  2.995E+10
  10    0.218   21.633    1.698     0.178     9.604   749.548  1.340E+10  2.612E+10
  11    0.247   24.156    3.348     0.190     7.529   687.172  1.065E+10  2.268E+10
  12    0.278   26.823    1.986     0.205     6.333   635.941  8.553E+09  1.942E+10
  13    0.310   29.617    3.602     0.214     4.793   589.990  6.670E+09  1.846E+10
  14    0.344   32.521    2.206     0.220     4.264   566.965  5.432E+09  1.657E+10
  15    0.379   35.519    3.790     0.223     3.984   535.504  4.430E+09  1.401E+10
  16    0.414   38.591    2.354     0.224     3.511   503.075  3.587E+09  1.199E+10
  17    0.450   41.720    3.904     0.225     3.032   472.740  2.858E+09  1.016E+10
  18    0.487   44.886    2.428     0.224     2.613   439.225  2.253E+09  8.379E+09
  19    0.524   48.072    3.944     0.223     2.260   401.390  1.757E+09  6.645E+09
  20    0.561   51.257    2.426     0.223     1.890   368.977  1.375E+09  5.431E+09
  21    0.597   54.423    3.906     0.222     1.610   333.692  1.070E+09  4.234E+09
  22    0.634   57.550    2.348     0.222     1.364   302.193  8.360E+08  3.327E+09
  23    0.669   60.620    3.792     0.220     1.171   269.169  6.493E+08  2.543E+09
  24    0.704   63.615    2.198     0.220     1.006   238.847  5.039E+08  1.942E+09
  25    0.737   66.516    3.604     0.217     0.887   209.515  3.858E+08  1.487E+09
  26    0.770   69.306    1.976     0.216     0.769   182.641  2.909E+08  1.134E+09
  27    0.801   71.968    3.348     0.214     0.685   157.592  2.180E+08  8.542E+08
  28    0.830   74.487    1.690     0.213     0.638   136.352  1.633E+08  6.542E+08
  29    0.857   76.847    3.030     0.210     0.581   114.811  1.199E+08  4.962E+08
  30    0.882   79.034    1.344     0.208     0.543    96.624  8.654E+07  3.697E+08
  31    0.905   81.034    2.656     0.203     0.570    81.998  6.261E+07  2.941E+08
  32    0.926   82.837    0.950     0.202     0.553    67.324  4.317E+07  2.128E+08
  33    0.945   84.431    2.238     0.199     0.591    54.301  2.817E+07  1.543E+08
  34    0.961   85.806    0.512     0.197     0.669    43.544  1.738E+07  1.118E+08
  35    0.974   86.955    1.786     0.196     0.735    33.690  9.982E+06  7.394E+07
  36    0.985   87.870    0.044     0.196     0.788    25.515  4.698E+06  4.290E+07
  37    0.992   88.546    1.308     0.206     0.874    20.363  2.779E+06  2.736E+07


Requested Outputs:


  Col  Parameter  Units
  ---  ---------  -----
   0   Time       (s)       
   1   TipDxc1    (m)       
   2   TipDyc1    (m)       
   3   TipDxc2    (m)       
   4   TipDyc2    (m)       
   5   TipDxc3    (m)       
   6   TipDyc3    (m)       
   7   BldPitch1  (deg)     
   8   BldPitch2  (deg)     
   9   BldPitch3  (deg)     
  10   PtfmSurge  (m)       
  11   PtfmSway   (m)       
  12   PtfmHeave  (m)       
  13   PtfmRoll   (deg)     
  14   PtfmPitch  (deg)     
  15   PtfmYaw    (deg)     
  16   Azimuth    (deg)     
  17   RotSpeed   (rpm)     
  18   RotAccel   (deg/s^2) 
  19   LSSGagP    (deg)     
  20   LSSGagV    (rpm)     
  21   LSSGagA    (deg/s^2) 
  22   GenSpeed   (rpm)     
  23   GenAccel   (deg/s^2) 
  24   YawPos     (deg)     
  25   YawRate    (deg/s)   
  26   YawAccel   (deg/s^2) 
  27   YawBrTDxp  (m)       
  28   YawBrTDyp  (m)       
  29   YawBrTDzp  (m)       
  30   YawBrTDxt  (m)       
  31   YawBrTDyt  (m)       
  32   YawBrTDzt  (m)       
  33   YawBrTAxp  (m/s^2)   
  34   YawBrTAyp  (m/s^2)   
  35   YawBrTAzp  (m/s^2)   
  36   RootFxc1   (kN)      
  37   RootFyc1   (kN)      
  38   RootFzc1   (kN)      
  39   RootFxb1   (kN)      
  40   RootFyb1   (kN)      
  41   RootMxc1   (kN·m)    
  42   RootMyc1   (kN·m)    
  43   RootMzc1   (kN·m)    
  44   RootMxb1   (kN·m)    
  45   RootMyb1   (kN·m)    
  46   RootFxc2   (kN)      
  47   RootFyc2   (kN)      
  48   RootFzc2   (kN)      
  49   RootFxb2   (kN)      
  50   RootFyb2   (kN)      
  51   RootMxc2   (kN·m)    
  52   RootMyc2   (kN·m)    
  53   RootMzc2   (kN·m)    
  54   RootMxb2   (kN·m)    
  55   RootMyb2   (kN·m)    
  56   RootFxc3   (kN)      
  57   RootFyc3   (kN)      
  58   RootFzc3   (kN)      
  59   RootFxb3   (kN)      
  60   RootFyb3   (kN)      
  61   RootMxc3   (kN·m)    
  62   RootMyc3   (kN·m)    
  63   RootMzc3   (kN·m)    
  64   RootMxb3   (kN·m)    
  65   RootMyb3   (kN·m)    
  66   RotThrust  (kN)      
  67   LSShftFya  (kN)      
  68   LSShftFza  (kN)      
  69   LSShftFys  (kN)      
  70   LSShftFzs  (kN)      
  71   LSShftTq   (kN·m)    
  72   LSSTipMya  (kN·m)    
  73   LSSTipMza  (kN·m)    
  74   LSSTipMys  (kN·m)    
  75   LSSTipMzs  (kN·m)    
  76   LSSGagMya  (kN·m)    
  77   LSSGagMza  (kN·m)    
  78   LSSGagMys  (kN·m)    
  79   LSSGagMzs  (kN·m)    
  80   HSShftTq   (kN·m)    
  81   HSShftPwr  (kW)      
  82   HSSBrTq    (kN·m)    
  83   YawBrFxn   (kN)      
  84   YawBrFyn   (kN)      
  85   YawBrFzn   (kN)      
  86   YawBrFxp   (kN)      
  87   YawBrFyp   (kN)      
  88   YawBrMxn   (kN·m)    
  89   YawBrMyn   (kN·m)    
  90   YawBrMzn   (kN·m)    
  91   YawBrMxp   (kN·m)    
  92   YawBrMyp   (kN·m)    
  93   TwrBsFxt   (kN)      
  94   TwrBsFyt   (kN)      
  95   TwrBsFzt   (kN)      
  96   TwrBsMxt   (kN·m)    
  97   TwrBsMyt   (kN·m)    
  98   TwrBsMzt   (kN·m)    
  99   NcIMUTAxs  (m/s^2)   
 100   NcIMUTAys  (m/s^2)   
