
This summary file was generated by TurbSim (v1.06.00, 21-Sep-2012) on 20-Sep-2017 at 17:58:11.


Runtime Options:

    123456  Random seed #1
    789012  Random seed #2
         F  Output binary HH turbulence parameters?
         F  Output formatted turbulence parameters?
         F  Output AeroDyn HH files?
         T  Output AeroDyn FF files?
         F  Output BLADED FF files?
         F  Output tower data?
         F  Output formatted FF files?
         F  Output coherent turbulence time step file?
         T  Clockwise rotation when looking downwind?
 1 -   HUB  IEC turbulence models scaled to exact specified standard deviation


Turbine/Model Specifications:

        33  Vertical grid-point matrix dimension
        33  Horizontal grid-point matrix dimension
     0.050  Time step [seconds]
  5400.000  Analysis time [seconds]
  5400.000  Usable output time [seconds]
   119.000  Hub height [m]
   200.000  Grid height [m]
   200.000  Grid width [m]
     0.000  Vertical flow angle [degrees]
     0.000  Horizontal flow angle [degrees]


Meteorological Boundary Conditions:

    IECKAI  IEC Kaimal spectral model
         3  IEC standard: IEC 61400-3 Ed. 1: 2006
         C  IEC turbulence characteristic
       NTM  IEC Normal Turbulence Model
       N/A  IEC Extreme Turbulence Model (ETM) "c" parameter [m/s]
       IEC  Wind profile type
   119.000  Reference height [m]
    10.300  Reference wind speed [m/s]
       N/A  Jet height [m]
     0.140  Power law exponent
     0.030  Surface roughness length [m]


You have requested that the following file(s) be generated:

   10.3ms.bts (AeroDyn/TurbSim full-field wind file)


Turbulence Simulation Scaling Parameter Summary:

   Turbulence model used                            =  IEC Kaimal
   Turbulence characteristic                        =  C
   IEC turbulence type                              =  Normal Turbulence Model
   IEC standard                                     =  IEC 61400-3 Ed. 1: 2006
   Mean wind speed at hub height                    =   10.300 m/s
   Expected value of turbulence intensity at 15 m/s =   12.000%
   Characteristic value of standard deviation       =    1.599 m/s
   Turbulence scale                                 =   42.000 m
   u-component integral scale                       =  340.200 m
   Coherency scale                                  =  340.200 m
   Characteristic value of hub turbulence intensity =   15.524%
   Gradient Richardson number                       =    0.000

   Wind profile type                                =  Power law on rotor disk, logarithmic elsewhere
   Power law exponent                               =    0.140
   Mean shear across rotor disk                     =    0.016 (m/s)/m
   Assumed rotor diameter                           =  200.000 m
   Surface roughness length                         =    0.030 m

   Number of time steps in the FFT                  =   108416
   Number of time steps output                      =   108389


Mean Flow Angles:

   Vertical   =   0.0 degrees
   Horizontal =   0.0 degrees

Mean Wind Speed Profile:

   Height    Wind Speed   Horizontal Angle  U-comp (X)   V-comp (Y)   W-comp (Z)
     (m)        (m/s)         (degrees)       (m/s)        (m/s)        (m/s)   
   ------    ----------   ----------------  ----------   ----------   ----------
    219.0       11.22            0.00         11.22         0.00         0.00
    212.8       11.17            0.00         11.17         0.00         0.00
    206.5       11.13            0.00         11.13         0.00         0.00
    200.2       11.08            0.00         11.08         0.00         0.00
    194.0       11.03            0.00         11.03         0.00         0.00
    187.8       10.98            0.00         10.98         0.00         0.00
    181.5       10.93            0.00         10.93         0.00         0.00
    175.2       10.87            0.00         10.87         0.00         0.00
    169.0       10.82            0.00         10.82         0.00         0.00
    162.8       10.76            0.00         10.76         0.00         0.00
    156.5       10.70            0.00         10.70         0.00         0.00
    150.2       10.64            0.00         10.64         0.00         0.00
    144.0       10.58            0.00         10.58         0.00         0.00
    137.8       10.51            0.00         10.51         0.00         0.00
    131.5       10.45            0.00         10.45         0.00         0.00
    125.2       10.37            0.00         10.37         0.00         0.00
    119.0       10.30            0.00         10.30         0.00         0.00
    112.8       10.22            0.00         10.22         0.00         0.00
    106.5       10.14            0.00         10.14         0.00         0.00
    100.2       10.06            0.00         10.06         0.00         0.00
     94.0        9.97            0.00          9.97         0.00         0.00
     87.8        9.87            0.00          9.87         0.00         0.00
     81.5        9.77            0.00          9.77         0.00         0.00
     75.2        9.66            0.00          9.66         0.00         0.00
     69.0        9.54            0.00          9.54         0.00         0.00
     62.8        9.42            0.00          9.42         0.00         0.00
     56.5        9.28            0.00          9.28         0.00         0.00
     50.2        9.13            0.00          9.13         0.00         0.00
     44.0        8.96            0.00          8.96         0.00         0.00
     37.8        8.77            0.00          8.77         0.00         0.00
     31.5        8.55            0.00          8.55         0.00         0.00
     25.2        8.29            0.00          8.29         0.00         0.00
     19.0        7.97            0.00          7.97         0.00         0.00


Harvested Random Seeds after Generation of the Random Numbers:

    103215436 Harvested seed # 1
    465095680 Harvested seed # 2


Scaling statistics from the hub grid point:

  Component  Target Sigma (m/s)  Simulated Sigma (m/s)  Scaling Factor
  ---------  ------------------  ---------------------  --------------
     u'             1.599                1.631                0.981
     v'             1.279                1.268                1.009
     w'             0.800                0.786                1.018


Hub-Height Simulated Turbulence Statistical Summary:

   Type of Wind        Min (m/s)   Mean (m/s)    Max (m/s)  Sigma (m/s)       TI (%)
   ----------------    ---------   ----------    ---------  -----------       ------
   Longitudinal (u)         3.52        10.30        15.76        1.599       15.524
   Lateral (v)             -5.45         0.00         5.35        1.279       12.419
   Vertical (w)            -3.95         0.00         3.62        0.799        7.762
   U component              3.52        10.30        15.76        1.599       15.524
   V component             -5.45         0.00         5.35        1.279       12.419
   W component             -3.95         0.00         3.62        0.799        7.762
   Horizontal (U&V)         3.59        10.38        16.09        1.589       15.305
   Total                    3.59        10.41        16.09        1.583       15.202

                       Min Reynolds     Mean Reynolds    Max Reynolds    Correlation
   Product             Stress (m/s)^2   Stress (m/s)^2   Stress (m/s)^2  Coefficient
   ----------------    --------------   --------------   --------------  -----------
   u'w'                     -9.885             0.007            10.484         0.006
   u'v'                    -25.931            -0.149            13.389        -0.073
   v'w'                     -7.562             0.008             7.489         0.008


   Friction Velocity (Ustar)  =      0.084 m/s
   Maximum Instantaneous TKE  =     26.218 (m/s)^2
   Maximum Instantaneous CTKE =     13.008 (m/s)^2


Grid Point Variance Summary:

   Y-coord -100.00  -93.75  -87.50  -81.25  -75.00  -68.75  -62.50  -56.25  -50.00  -43.75  -37.50  -31.25  -25.00  -18.75  -12.50   -6.25    0.00    6.25   12.50   18.75   25.00   31.25   37.50   43.75   50.00   56.25   62.50   68.75   75.00   81.25   87.50   93.75  100.00

   Height   Standard deviation at grid points for the u component:
   219.00    1.588   1.575   1.573   1.585   1.535   1.566   1.576   1.583   1.542   1.554   1.546   1.569   1.570   1.548   1.557   1.540   1.530   1.523   1.520   1.560   1.559   1.578   1.593   1.627   1.606   1.559   1.560   1.523   1.519   1.553   1.531   1.518   1.534
   212.75    1.558   1.565   1.555   1.575   1.557   1.551   1.556   1.555   1.514   1.537   1.545   1.562   1.581   1.549   1.530   1.529   1.486   1.528   1.536   1.504   1.547   1.560   1.563   1.610   1.609   1.553   1.562   1.544   1.526   1.537   1.516   1.511   1.517
   206.50    1.543   1.543   1.554   1.583   1.564   1.559   1.571   1.553   1.540   1.550   1.534   1.534   1.555   1.566   1.519   1.493   1.500   1.514   1.542   1.513   1.527   1.539   1.549   1.592   1.582   1.565   1.513   1.530   1.512   1.549   1.537   1.521   1.518
   200.25    1.558   1.559   1.547   1.546   1.581   1.565   1.557   1.591   1.578   1.539   1.533   1.551   1.549   1.556   1.519   1.538   1.504   1.512   1.536   1.559   1.524   1.535   1.555   1.571   1.539   1.539   1.478   1.523   1.495   1.508   1.498   1.514   1.534
   194.00    1.626   1.574   1.552   1.542   1.565   1.579   1.546   1.567   1.556   1.545   1.568   1.584   1.540   1.515   1.577   1.538   1.545   1.521   1.550   1.526   1.528   1.546   1.539   1.532   1.535   1.532   1.490   1.512   1.471   1.457   1.507   1.519   1.529
   187.75    1.627   1.604   1.570   1.561   1.554   1.560   1.565   1.559   1.552   1.548   1.543   1.558   1.545   1.522   1.545   1.547   1.552   1.520   1.520   1.513   1.519   1.555   1.559   1.544   1.554   1.547   1.521   1.510   1.440   1.495   1.493   1.495   1.497
   181.50    1.609   1.546   1.567   1.548   1.555   1.579   1.565   1.525   1.526   1.503   1.501   1.504   1.519   1.549   1.596   1.565   1.551   1.498   1.490   1.502   1.511   1.570   1.576   1.536   1.560   1.544   1.545   1.497   1.510   1.512   1.499   1.471   1.481
   175.25    1.572   1.560   1.518   1.518   1.556   1.595   1.602   1.540   1.551   1.509   1.499   1.491   1.516   1.572   1.586   1.584   1.552   1.547   1.530   1.546   1.559   1.598   1.587   1.617   1.584   1.563   1.548   1.525   1.526   1.523   1.464   1.445   1.480
   169.00    1.538   1.532   1.497   1.510   1.532   1.576   1.592   1.582   1.569   1.577   1.540   1.535   1.532   1.552   1.533   1.523   1.529   1.526   1.539   1.535   1.549   1.576   1.581   1.606   1.589   1.550   1.519   1.540   1.513   1.529   1.499   1.465   1.483
   162.75    1.545   1.546   1.540   1.528   1.552   1.546   1.571   1.595   1.568   1.555   1.549   1.523   1.555   1.566   1.539   1.543   1.508   1.515   1.543   1.552   1.546   1.544   1.563   1.582   1.555   1.545   1.522   1.541   1.540   1.498   1.469   1.506   1.505
   156.50    1.563   1.549   1.547   1.528   1.528   1.538   1.570   1.573   1.553   1.551   1.542   1.552   1.575   1.568   1.583   1.546   1.559   1.552   1.553   1.554   1.525   1.534   1.604   1.581   1.549   1.543   1.519   1.527   1.486   1.473   1.490   1.512   1.497
   150.25    1.550   1.538   1.509   1.493   1.514   1.528   1.537   1.562   1.555   1.579   1.561   1.564   1.573   1.574   1.595   1.582   1.581   1.577   1.569   1.568   1.587   1.565   1.604   1.575   1.557   1.531   1.528   1.494   1.488   1.478   1.487   1.524   1.506
   144.00    1.540   1.552   1.513   1.535   1.542   1.502   1.516   1.545   1.533   1.570   1.602   1.595   1.623   1.601   1.555   1.617   1.601   1.593   1.546   1.606   1.583   1.564   1.572   1.574   1.560   1.523   1.509   1.477   1.483   1.515   1.539   1.516   1.453
   137.75    1.551   1.540   1.527   1.528   1.521   1.510   1.538   1.537   1.540   1.583   1.604   1.573   1.580   1.581   1.571   1.597   1.603   1.597   1.581   1.621   1.590   1.543   1.568   1.570   1.545   1.524   1.510   1.490   1.482   1.505   1.521   1.516   1.489
   131.50    1.493   1.520   1.531   1.504   1.525   1.524   1.539   1.545   1.541   1.567   1.608   1.556   1.574   1.588   1.620   1.616   1.622   1.634   1.645   1.638   1.601   1.584   1.575   1.601   1.543   1.547   1.528   1.513   1.521   1.521   1.485   1.525   1.534
   125.25    1.496   1.523   1.499   1.501   1.492   1.538   1.553   1.523   1.517   1.528   1.547   1.553   1.576   1.599   1.625   1.628   1.624   1.616   1.674   1.622   1.595   1.591   1.559   1.560   1.526   1.540   1.524   1.512   1.538   1.521   1.509   1.518   1.524
   119.00    1.506   1.507   1.490   1.490   1.522   1.571   1.553   1.517   1.489   1.518   1.538   1.537   1.550   1.597   1.622   1.621   1.599   1.598   1.640   1.667   1.610   1.625   1.591   1.558   1.549   1.537   1.535   1.509   1.525   1.525   1.539   1.546   1.541
   112.75    1.513   1.513   1.496   1.514   1.543   1.544   1.529   1.522   1.509   1.507   1.525   1.550   1.592   1.574   1.569   1.620   1.650   1.651   1.625   1.631   1.638   1.611   1.564   1.560   1.518   1.547   1.563   1.538   1.530   1.508   1.516   1.512   1.525
   106.50    1.514   1.511   1.519   1.532   1.537   1.547   1.538   1.512   1.503   1.482   1.508   1.530   1.575   1.608   1.639   1.639   1.655   1.638   1.614   1.634   1.658   1.631   1.616   1.560   1.530   1.555   1.565   1.557   1.525   1.502   1.466   1.493   1.544
   100.25    1.471   1.513   1.533   1.562   1.577   1.540   1.524   1.550   1.509   1.509   1.534   1.581   1.608   1.610   1.670   1.663   1.658   1.643   1.641   1.626   1.635   1.626   1.607   1.599   1.551   1.556   1.570   1.541   1.508   1.463   1.477   1.509   1.552
    94.00    1.472   1.497   1.526   1.541   1.517   1.558   1.557   1.547   1.535   1.538   1.547   1.593   1.625   1.621   1.662   1.663   1.675   1.640   1.637   1.609   1.600   1.600   1.595   1.580   1.528   1.557   1.548   1.517   1.513   1.503   1.549   1.551   1.584
    87.75    1.492   1.461   1.479   1.519   1.546   1.563   1.549   1.568   1.556   1.592   1.580   1.567   1.599   1.593   1.617   1.656   1.662   1.623   1.614   1.623   1.578   1.572   1.553   1.545   1.539   1.528   1.523   1.542   1.537   1.537   1.534   1.570   1.569
    81.50    1.510   1.490   1.482   1.490   1.539   1.535   1.526   1.507   1.560   1.558   1.558   1.553   1.573   1.568   1.640   1.616   1.627   1.620   1.594   1.620   1.584   1.555   1.558   1.534   1.529   1.542   1.526   1.531   1.537   1.529   1.554   1.556   1.594
    75.25    1.494   1.492   1.482   1.499   1.519   1.539   1.517   1.501   1.517   1.513   1.544   1.555   1.586   1.582   1.612   1.589   1.607   1.589   1.574   1.586   1.576   1.576   1.567   1.546   1.551   1.576   1.517   1.544   1.535   1.543   1.534   1.537   1.553
    69.00    1.484   1.508   1.509   1.483   1.509   1.497   1.476   1.479   1.463   1.490   1.543   1.552   1.556   1.553   1.568   1.559   1.528   1.563   1.582   1.554   1.564   1.571   1.527   1.551   1.595   1.586   1.524   1.506   1.525   1.520   1.521   1.536   1.560
    62.75    1.498   1.460   1.527   1.494   1.500   1.493   1.456   1.461   1.472   1.490   1.516   1.528   1.542   1.567   1.572   1.539   1.570   1.570   1.586   1.544   1.565   1.537   1.521   1.560   1.551   1.539   1.495   1.503   1.501   1.548   1.546   1.587   1.551
    56.50    1.508   1.520   1.520   1.489   1.501   1.521   1.489   1.461   1.464   1.456   1.479   1.533   1.532   1.573   1.538   1.515   1.539   1.575   1.594   1.554   1.561   1.570   1.555   1.559   1.544   1.542   1.518   1.507   1.516   1.515   1.523   1.585   1.537
    50.25    1.526   1.535   1.532   1.532   1.529   1.538   1.512   1.461   1.461   1.455   1.479   1.506   1.512   1.517   1.537   1.529   1.533   1.540   1.539   1.563   1.585   1.538   1.554   1.588   1.604   1.583   1.598   1.549   1.509   1.543   1.560   1.570   1.566
    44.00    1.530   1.534   1.538   1.537   1.500   1.484   1.491   1.456   1.441   1.484   1.500   1.476   1.487   1.490   1.512   1.553   1.582   1.567   1.564   1.582   1.598   1.603   1.641   1.621   1.639   1.635   1.616   1.566   1.588   1.576   1.555   1.599   1.546
    37.75    1.511   1.500   1.504   1.528   1.514   1.512   1.506   1.492   1.487   1.477   1.492   1.519   1.507   1.553   1.559   1.606   1.593   1.592   1.610   1.595   1.562   1.593   1.599   1.630   1.653   1.656   1.634   1.600   1.591   1.585   1.579   1.592   1.569
    31.50    1.521   1.520   1.502   1.543   1.530   1.528   1.524   1.533   1.517   1.461   1.470   1.466   1.525   1.547   1.610   1.574   1.592   1.582   1.579   1.570   1.563   1.547   1.542   1.586   1.600   1.619   1.582   1.599   1.623   1.612   1.608   1.576   1.566
    25.25    1.555   1.543   1.507   1.510   1.540   1.533   1.504   1.496   1.478   1.478   1.491   1.510   1.520   1.531   1.542   1.558   1.573   1.597   1.573   1.530   1.525   1.538   1.539   1.580   1.606   1.649   1.611   1.639   1.652   1.630   1.583   1.561   1.565
    19.00    1.554   1.537   1.505   1.510   1.517   1.548   1.521   1.489   1.487   1.492   1.469   1.454   1.513   1.536   1.545   1.565   1.565   1.587   1.605   1.539   1.522   1.543   1.568   1.566   1.582   1.628   1.634   1.658   1.621   1.614   1.559   1.556   1.558

   Height   Standard deviation at grid points for the v component:
   219.00    1.279   1.279   1.279   1.279   1.279   1.279   1.279   1.279   1.279   1.279   1.279   1.279   1.279   1.279   1.279   1.279   1.279   1.279   1.279   1.279   1.279   1.279   1.279   1.279   1.279   1.279   1.279   1.279   1.279   1.279   1.279   1.279   1.279
   212.75    1.279   1.279   1.279   1.279   1.279   1.279   1.279   1.279   1.279   1.279   1.279   1.279   1.279   1.279   1.279   1.279   1.279   1.279   1.279   1.279   1.279   1.279   1.279   1.279   1.279   1.279   1.279   1.279   1.279   1.279   1.279   1.279   1.279
   206.50    1.279   1.279   1.279   1.279   1.279   1.279   1.279   1.279   1.279   1.279   1.279   1.279   1.279   1.279   1.279   1.279   1.279   1.279   1.279   1.279   1.279   1.279   1.279   1.279   1.279   1.279   1.279   1.279   1.279   1.279   1.279   1.279   1.279
   200.25    1.279   1.279   1.279   1.279   1.279   1.279   1.279   1.279   1.279   1.279   1.279   1.279   1.279   1.279   1.279   1.279   1.279   1.279   1.279   1.279   1.279   1.279   1.279   1.279   1.279   1.279   1.279   1.279   1.279   1.279   1.279   1.279   1.279
   194.00    1.279   1.279   1.279   1.279   1.279   1.279   1.279   1.279   1.279   1.279   1.279   1.279   1.279   1.279   1.279   1.279   1.279   1.279   1.279   1.279   1.279   1.279   1.279   1.279   1.279   1.279   1.279   1.279   1.279   1.279   1.279   1.279   1.279
   187.75    1.279   1.279   1.279   1.279   1.279   1.279   1.279   1.279   1.279   1.279   1.279   1.279   1.279   1.279   1.279   1.279   1.279   1.279   1.279   1.279   1.279   1.279   1.279   1.279   1.279   1.279   1.279   1.279   1.279   1.279   1.279   1.279   1.279
   181.50    1.279   1.279   1.279   1.279   1.279   1.279   1.279   1.279   1.279   1.279   1.279   1.279   1.279   1.279   1.279   1.279   1.279   1.279   1.279   1.279   1.279   1.279   1.279   1.279   1.279   1.279   1.279   1.279   1.279   1.279   1.279   1.279   1.279
   175.25    1.279   1.279   1.279   1.279   1.279   1.279   1.279   1.279   1.279   1.279   1.279   1.279   1.279   1.279   1.279   1.279   1.279   1.279   1.279   1.279   1.279   1.279   1.279   1.279   1.279   1.279   1.279   1.279   1.279   1.279   1.279   1.279   1.279
   169.00    1.279   1.279   1.279   1.279   1.279   1.279   1.279   1.279   1.279   1.279   1.279   1.279   1.279   1.279   1.279   1.279   1.279   1.279   1.279   1.279   1.279   1.279   1.279   1.279   1.279   1.279   1.279   1.279   1.279   1.279   1.279   1.279   1.279
   162.75    1.279   1.279   1.279   1.279   1.279   1.279   1.279   1.279   1.279   1.279   1.279   1.279   1.279   1.279   1.279   1.279   1.279   1.279   1.279   1.279   1.279   1.279   1.279   1.279   1.279   1.279   1.279   1.279   1.279   1.279   1.279   1.279   1.279
   156.50    1.279   1.279   1.279   1.279   1.279   1.279   1.279   1.279   1.279   1.279   1.279   1.279   1.279   1.279   1.279   1.279   1.279   1.279   1.279   1.279   1.279   1.279   1.279   1.279   1.279   1.279   1.279   1.279   1.279   1.279   1.279   1.279   1.279
   150.25    1.279   1.279   1.279   1.279   1.279   1.279   1.279   1.279   1.279   1.279   1.279   1.279   1.279   1.279   1.279   1.279   1.279   1.279   1.279   1.279   1.279   1.279   1.279   1.279   1.279   1.279   1.279   1.279   1.279   1.279   1.279   1.279   1.279
   144.00    1.279   1.279   1.279   1.279   1.279   1.279   1.279   1.279   1.279   1.279   1.279   1.279   1.279   1.279   1.279   1.279   1.279   1.279   1.279   1.279   1.279   1.279   1.279   1.279   1.279   1.279   1.279   1.279   1.279   1.279   1.279   1.279   1.279
   137.75    1.279   1.279   1.279   1.279   1.279   1.279   1.279   1.279   1.279   1.279   1.279   1.279   1.279   1.279   1.279   1.279   1.279   1.279   1.279   1.279   1.279   1.279   1.279   1.279   1.279   1.279   1.279   1.279   1.279   1.279   1.279   1.279   1.279
   131.50    1.279   1.279   1.279   1.279   1.279   1.279   1.279   1.279   1.279   1.279   1.279   1.279   1.279   1.279   1.279   1.279   1.279   1.279   1.279   1.279   1.279   1.279   1.279   1.279   1.279   1.279   1.279   1.279   1.279   1.279   1.279   1.279   1.279
   125.25    1.279   1.279   1.279   1.279   1.279   1.279   1.279   1.279   1.279   1.279   1.279   1.279   1.279   1.279   1.279   1.279   1.279   1.279   1.279   1.279   1.279   1.279   1.279   1.279   1.279   1.279   1.279   1.279   1.279   1.279   1.279   1.279   1.279
   119.00    1.279   1.279   1.279   1.279   1.279   1.279   1.279   1.279   1.279   1.279   1.279   1.279   1.279   1.279   1.279   1.279   1.279   1.279   1.279   1.279   1.279   1.279   1.279   1.279   1.279   1.279   1.279   1.279   1.279   1.279   1.279   1.279   1.279
   112.75    1.279   1.279   1.279   1.279   1.279   1.279   1.279   1.279   1.279   1.279   1.279   1.279   1.279   1.279   1.279   1.279   1.279   1.279   1.279   1.279   1.279   1.279   1.279   1.279   1.279   1.279   1.279   1.279   1.279   1.279   1.279   1.279   1.279
   106.50    1.279   1.279   1.279   1.279   1.279   1.279   1.279   1.279   1.279   1.279   1.279   1.279   1.279   1.279   1.279   1.279   1.279   1.279   1.279   1.279   1.279   1.279   1.279   1.279   1.279   1.279   1.279   1.279   1.279   1.279   1.279   1.279   1.279
   100.25    1.279   1.279   1.279   1.279   1.279   1.279   1.279   1.279   1.279   1.279   1.279   1.279   1.279   1.279   1.279   1.279   1.279   1.279   1.279   1.279   1.279   1.279   1.279   1.279   1.279   1.279   1.279   1.279   1.279   1.279   1.279   1.279   1.279
    94.00    1.279   1.279   1.279   1.279   1.279   1.279   1.279   1.279   1.279   1.279   1.279   1.279   1.279   1.279   1.279   1.279   1.279   1.279   1.279   1.279   1.279   1.279   1.279   1.279   1.279   1.279   1.279   1.279   1.279   1.279   1.279   1.279   1.279
    87.75    1.279   1.279   1.279   1.279   1.279   1.279   1.279   1.279   1.279   1.279   1.279   1.279   1.279   1.279   1.279   1.279   1.279   1.279   1.279   1.279   1.279   1.279   1.279   1.279   1.279   1.279   1.279   1.279   1.279   1.279   1.279   1.279   1.279
    81.50    1.279   1.279   1.279   1.279   1.279   1.279   1.279   1.279   1.279   1.279   1.279   1.279   1.279   1.279   1.279   1.279   1.279   1.279   1.279   1.279   1.279   1.279   1.279   1.279   1.279   1.279   1.279   1.279   1.279   1.279   1.279   1.279   1.279
    75.25    1.279   1.279   1.279   1.279   1.279   1.279   1.279   1.279   1.279   1.279   1.279   1.279   1.279   1.279   1.279   1.279   1.279   1.279   1.279   1.279   1.279   1.279   1.279   1.279   1.279   1.279   1.279   1.279   1.279   1.279   1.279   1.279   1.279
    69.00    1.279   1.279   1.279   1.279   1.279   1.279   1.279   1.279   1.279   1.279   1.279   1.279   1.279   1.279   1.279   1.279   1.279   1.279   1.279   1.279   1.279   1.279   1.279   1.279   1.279   1.279   1.279   1.279   1.279   1.279   1.279   1.279   1.279
    62.75    1.279   1.279   1.279   1.279   1.279   1.279   1.279   1.279   1.279   1.279   1.279   1.279   1.279   1.279   1.279   1.279   1.279   1.279   1.279   1.279   1.279   1.279   1.279   1.279   1.279   1.279   1.279   1.279   1.279   1.279   1.279   1.279   1.279
    56.50    1.279   1.279   1.279   1.279   1.279   1.279   1.279   1.279   1.279   1.279   1.279   1.279   1.279   1.279   1.279   1.279   1.279   1.279   1.279   1.279   1.279   1.279   1.279   1.279   1.279   1.279   1.279   1.279   1.279   1.279   1.279   1.279   1.279
    50.25    1.279   1.279   1.279   1.279   1.279   1.279   1.279   1.279   1.279   1.279   1.279   1.279   1.279   1.279   1.279   1.279   1.279   1.279   1.279   1.279   1.279   1.279   1.279   1.279   1.279   1.279   1.279   1.279   1.279   1.279   1.279   1.279   1.279
    44.00    1.279   1.279   1.279   1.279   1.279   1.279   1.279   1.279   1.279   1.279   1.279   1.279   1.279   1.279   1.279   1.279   1.279   1.279   1.279   1.279   1.279   1.279   1.279   1.279   1.279   1.279   1.279   1.279   1.279   1.279   1.279   1.279   1.279
    37.75    1.279   1.279   1.279   1.279   1.279   1.279   1.279   1.279   1.279   1.279   1.279   1.279   1.279   1.279   1.279   1.279   1.279   1.279   1.279   1.279   1.279   1.279   1.279   1.279   1.279   1.279   1.279   1.279   1.279   1.279   1.279   1.279   1.279
    31.50    1.279   1.279   1.279   1.279   1.279   1.279   1.279   1.279   1.279   1.279   1.279   1.279   1.279   1.279   1.279   1.279   1.279   1.279   1.279   1.279   1.279   1.279   1.279   1.279   1.279   1.279   1.279   1.279   1.279   1.279   1.279   1.279   1.279
    25.25    1.279   1.279   1.279   1.279   1.279   1.279   1.279   1.279   1.279   1.279   1.279   1.279   1.279   1.279   1.279   1.279   1.279   1.279   1.279   1.279   1.279   1.279   1.279   1.279   1.279   1.279   1.279   1.279   1.279   1.279   1.279   1.279   1.279
    19.00    1.279   1.279   1.279   1.279   1.279   1.279   1.279   1.279   1.279   1.279   1.279   1.279   1.279   1.279   1.279   1.279   1.279   1.279   1.279   1.279   1.279   1.279   1.279   1.279   1.279   1.279   1.279   1.279   1.279   1.279   1.279   1.279   1.279

   Height   Standard deviation at grid points for the w component:
   219.00    0.799   0.800   0.799   0.799   0.799   0.799   0.800   0.799   0.799   0.799   0.799   0.799   0.799   0.799   0.800   0.799   0.799   0.799   0.799   0.799   0.799   0.799   0.799   0.799   0.799   0.799   0.799   0.799   0.800   0.799   0.799   0.799   0.799
   212.75    0.799   0.799   0.799   0.799   0.799   0.800   0.799   0.799   0.800   0.799   0.799   0.799   0.799   0.799   0.799   0.800   0.799   0.799   0.799   0.799   0.799   0.799   0.799   0.799   0.799   0.799   0.799   0.799   0.799   0.799   0.799   0.799   0.799
   206.50    0.799   0.799   0.799   0.799   0.799   0.799   0.799   0.799   0.799   0.799   0.799   0.799   0.799   0.799   0.799   0.799   0.799   0.799   0.799   0.799   0.799   0.799   0.799   0.799   0.799   0.799   0.799   0.799   0.799   0.799   0.799   0.800   0.799
   200.25    0.799   0.799   0.799   0.799   0.799   0.799   0.799   0.799   0.799   0.799   0.799   0.799   0.799   0.799   0.799   0.799   0.799   0.799   0.799   0.799   0.799   0.799   0.799   0.799   0.799   0.799   0.799   0.799   0.799   0.799   0.799   0.800   0.800
   194.00    0.799   0.799   0.799   0.799   0.799   0.799   0.799   0.799   0.799   0.799   0.799   0.799   0.799   0.799   0.799   0.799   0.800   0.799   0.800   0.799   0.800   0.799   0.799   0.799   0.799   0.799   0.799   0.799   0.799   0.799   0.799   0.799   0.800
   187.75    0.799   0.799   0.799   0.799   0.799   0.799   0.799   0.799   0.799   0.799   0.799   0.799   0.799   0.799   0.799   0.799   0.799   0.799   0.799   0.799   0.799   0.799   0.799   0.800   0.799   0.799   0.799   0.799   0.799   0.799   0.799   0.799   0.799
   181.50    0.799   0.799   0.799   0.799   0.799   0.799   0.799   0.800   0.799   0.799   0.799   0.799   0.799   0.799   0.799   0.799   0.799   0.799   0.799   0.799   0.799   0.799   0.799   0.799   0.799   0.799   0.800   0.799   0.799   0.799   0.799   0.799   0.799
   175.25    0.799   0.799   0.799   0.799   0.799   0.799   0.799   0.799   0.799   0.800   0.799   0.799   0.799   0.799   0.799   0.799   0.799   0.799   0.799   0.799   0.799   0.800   0.799   0.799   0.799   0.799   0.799   0.799   0.799   0.799   0.799   0.799   0.799
   169.00    0.799   0.799   0.799   0.799   0.799   0.799   0.799   0.799   0.799   0.799   0.799   0.799   0.799   0.799   0.799   0.799   0.799   0.799   0.799   0.799   0.799   0.799   0.800   0.799   0.799   0.799   0.799   0.800   0.799   0.799   0.799   0.799   0.799
   162.75    0.799   0.799   0.799   0.799   0.799   0.799   0.799   0.799   0.799   0.799   0.799   0.799   0.799   0.799   0.799   0.799   0.799   0.799   0.799   0.799   0.799   0.800   0.799   0.799   0.799   0.799   0.799   0.799   0.799   0.800   0.799   0.799   0.799
   156.50    0.799   0.799   0.799   0.799   0.799   0.799   0.800   0.799   0.799   0.799   0.799   0.799   0.799   0.799   0.799   0.799   0.799   0.799   0.799   0.799   0.799   0.799   0.799   0.799   0.799   0.799   0.799   0.799   0.799   0.799   0.799   0.799   0.799
   150.25    0.799   0.799   0.799   0.799   0.799   0.799   0.799   0.799   0.799   0.799   0.799   0.799   0.799   0.799   0.799   0.799   0.799   0.799   0.799   0.799   0.799   0.799   0.799   0.799   0.799   0.799   0.799   0.799   0.799   0.799   0.799   0.799   0.799
   144.00    0.799   0.799   0.799   0.799   0.799   0.799   0.799   0.799   0.799   0.799   0.799   0.799   0.799   0.799   0.799   0.800   0.799   0.799   0.799   0.799   0.799   0.799   0.799   0.799   0.799   0.799   0.799   0.799   0.799   0.799   0.799   0.799   0.800
   137.75    0.799   0.799   0.799   0.799   0.800   0.799   0.799   0.799   0.799   0.799   0.799   0.799   0.799   0.799   0.799   0.799   0.799   0.799   0.799   0.799   0.799   0.799   0.799   0.800   0.799   0.799   0.799   0.799   0.799   0.799   0.799   0.799   0.799
   131.50    0.799   0.799   0.799   0.799   0.799   0.799   0.800   0.799   0.799   0.799   0.799   0.800   0.800   0.799   0.799   0.799   0.799   0.799   0.799   0.799   0.800   0.799   0.799   0.799   0.799   0.800   0.799   0.800   0.799   0.799   0.799   0.799   0.799
   125.25    0.799   0.800   0.799   0.799   0.799   0.799   0.799   0.799   0.799   0.799   0.799   0.799   0.799   0.799   0.799   0.799   0.799   0.799   0.799   0.799   0.799   0.799   0.799   0.799   0.799   0.799   0.799   0.799   0.799   0.800   0.799   0.799   0.799
   119.00    0.799   0.799   0.799   0.799   0.799   0.799   0.799   0.799   0.799   0.799   0.799   0.799   0.800   0.799   0.799   0.799   0.799   0.799   0.799   0.799   0.799   0.799   0.799   0.799   0.799   0.799   0.799   0.799   0.799   0.799   0.799   0.799   0.799
   112.75    0.799   0.799   0.799   0.799   0.799   0.799   0.799   0.799   0.800   0.799   0.799   0.799   0.799   0.800   0.799   0.799   0.799   0.799   0.800   0.799   0.799   0.799   0.799   0.799   0.799   0.799   0.799   0.799   0.799   0.800   0.799   0.799   0.800
   106.50    0.799   0.799   0.799   0.799   0.799   0.799   0.799   0.800   0.799   0.799   0.799   0.799   0.799   0.799   0.800   0.799   0.799   0.799   0.799   0.799   0.799   0.799   0.800   0.799   0.799   0.799   0.799   0.799   0.799   0.799   0.799   0.799   0.799
   100.25    0.799   0.799   0.799   0.799   0.799   0.799   0.799   0.799   0.799   0.799   0.799   0.799   0.799   0.799   0.799   0.799   0.799   0.799   0.799   0.799   0.799   0.799   0.800   0.799   0.799   0.799   0.799   0.799   0.799   0.799   0.799   0.799   0.800
    94.00    0.799   0.799   0.799   0.800   0.799   0.799   0.799   0.799   0.799   0.799   0.799   0.799   0.799   0.799   0.799   0.799   0.799   0.799   0.799   0.799   0.800   0.799   0.799   0.799   0.799   0.799   0.799   0.800   0.799   0.799   0.799   0.799   0.799
    87.75    0.799   0.799   0.800   0.799   0.799   0.799   0.799   0.799   0.799   0.799   0.799   0.799   0.799   0.799   0.799   0.799   0.800   0.799   0.799   0.799   0.799   0.799   0.799   0.799   0.799   0.799   0.799   0.799   0.799   0.799   0.799   0.799   0.799
    81.50    0.799   0.799   0.799   0.799   0.799   0.799   0.799   0.799   0.799   0.799   0.799   0.799   0.799   0.799   0.800   0.799   0.799   0.799   0.799   0.799   0.799   0.799   0.799   0.799   0.799   0.799   0.799   0.799   0.799   0.799   0.799   0.799   0.799
    75.25    0.799   0.799   0.799   0.799   0.799   0.799   0.799   0.799   0.799   0.799   0.799   0.799   0.799   0.799   0.799   0.799   0.799   0.799   0.799   0.799   0.799   0.799   0.799   0.799   0.799   0.799   0.799   0.799   0.799   0.799   0.799   0.799   0.799
    69.00    0.799   0.799   0.799   0.799   0.799   0.799   0.799   0.799   0.800   0.800   0.799   0.799   0.799   0.799   0.799   0.799   0.799   0.799   0.799   0.799   0.799   0.799   0.800   0.799   0.799   0.799   0.799   0.799   0.799   0.799   0.799   0.799   0.800
    62.75    0.799   0.799   0.799   0.799   0.799   0.799   0.799   0.799   0.799   0.799   0.799   0.799   0.799   0.799   0.799   0.799   0.799   0.799   0.799   0.799   0.799   0.799   0.799   0.799   0.799   0.800   0.799   0.799   0.799   0.799   0.799   0.799   0.799
    56.50    0.799   0.800   0.799   0.799   0.799   0.799   0.799   0.799   0.799   0.799   0.799   0.799   0.799   0.799   0.799   0.799   0.799   0.799   0.799   0.799   0.799   0.799   0.799   0.799   0.799   0.799   0.799   0.799   0.799   0.799   0.799   0.799   0.799
    50.25    0.799   0.799   0.799   0.799   0.799   0.799   0.799   0.799   0.799   0.799   0.799   0.799   0.800   0.799   0.799   0.799   0.799   0.799   0.799   0.799   0.799   0.799   0.799   0.799   0.800   0.799   0.799   0.799   0.799   0.799   0.799   0.799   0.800
    44.00    0.799   0.799   0.799   0.799   0.799   0.799   0.799   0.799   0.799   0.799   0.799   0.799   0.799   0.799   0.799   0.799   0.799   0.799   0.799   0.799   0.799   0.799   0.799   0.799   0.799   0.799   0.799   0.799   0.799   0.800   0.799   0.799   0.799
    37.75    0.799   0.799   0.799   0.799   0.799   0.800   0.799   0.799   0.799   0.799   0.799   0.799   0.799   0.799   0.799   0.799   0.799   0.799   0.799   0.799   0.799   0.799   0.799   0.799   0.799   0.799   0.799   0.799   0.799   0.799   0.799   0.799   0.799
    31.50    0.799   0.799   0.799   0.799   0.799   0.799   0.799   0.799   0.799   0.799   0.799   0.799   0.799   0.799   0.799   0.799   0.799   0.799   0.799   0.799   0.799   0.799   0.799   0.799   0.799   0.799   0.799   0.799   0.799   0.799   0.799   0.799   0.799
    25.25    0.799   0.799   0.799   0.799   0.799   0.799   0.799   0.799   0.799   0.799   0.799   0.799   0.799   0.799   0.800   0.799   0.799   0.799   0.799   0.799   0.799   0.799   0.800   0.799   0.799   0.799   0.799   0.799   0.799   0.799   0.799   0.799   0.799
    19.00    0.799   0.799   0.799   0.799   0.799   0.799   0.799   0.799   0.799   0.799   0.799   0.799   0.799   0.799   0.799   0.799   0.799   0.799   0.799   0.799   0.799   0.799   0.799   0.799   0.799   0.799   0.799   0.799   0.799   0.799   0.799   0.799   0.799

   Mean standard deviation across all grid points:
      u component:    1.548 m/s
      v component:    1.279 m/s
      w component:    0.799 m/s


U-component (X) statistics from the hub grid point:

   Mean =  10.3000 m/s
   TI   =  15.5243 %

Nyquist frequency of turbulent wind field =        10.000 Hz


Processing complete.  3104.7 CPU seconds used.
