
This summary file was generated by TurbSim (v1.06.00, 21-Sep-2012) on 20-Sep-2017 at 17:58:17.


Runtime Options:

    123456  Random seed #1
    789012  Random seed #2
         F  Output binary HH turbulence parameters?
         F  Output formatted turbulence parameters?
         F  Output AeroDyn HH files?
         T  Output AeroDyn FF files?
         F  Output BLADED FF files?
         F  Output tower data?
         F  Output formatted FF files?
         F  Output coherent turbulence time step file?
         T  Clockwise rotation when looking downwind?
 1 -   HUB  IEC turbulence models scaled to exact specified standard deviation


Turbine/Model Specifications:

        33  Vertical grid-point matrix dimension
        33  Horizontal grid-point matrix dimension
     0.050  Time step [seconds]
  5400.000  Analysis time [seconds]
  5400.000  Usable output time [seconds]
   119.000  Hub height [m]
   200.000  Grid height [m]
   200.000  Grid width [m]
     0.000  Vertical flow angle [degrees]
     0.000  Horizontal flow angle [degrees]


Meteorological Boundary Conditions:

    IECKAI  IEC Kaimal spectral model
         3  IEC standard: IEC 61400-3 Ed. 1: 2006
         C  IEC turbulence characteristic
       NTM  IEC Normal Turbulence Model
       N/A  IEC Extreme Turbulence Model (ETM) "c" parameter [m/s]
       IEC  Wind profile type
   119.000  Reference height [m]
    13.900  Reference wind speed [m/s]
       N/A  Jet height [m]
     0.140  Power law exponent
     0.030  Surface roughness length [m]


You have requested that the following file(s) be generated:

   13.9ms.bts (AeroDyn/TurbSim full-field wind file)


Turbulence Simulation Scaling Parameter Summary:

   Turbulence model used                            =  IEC Kaimal
   Turbulence characteristic                        =  C
   IEC turbulence type                              =  Normal Turbulence Model
   IEC standard                                     =  IEC 61400-3 Ed. 1: 2006
   Mean wind speed at hub height                    =   13.900 m/s
   Expected value of turbulence intensity at 15 m/s =   12.000%
   Characteristic value of standard deviation       =    1.923 m/s
   Turbulence scale                                 =   42.000 m
   u-component integral scale                       =  340.200 m
   Coherency scale                                  =  340.200 m
   Characteristic value of hub turbulence intensity =   13.835%
   Gradient Richardson number                       =    0.000

   Wind profile type                                =  Power law on rotor disk, logarithmic elsewhere
   Power law exponent                               =    0.140
   Mean shear across rotor disk                     =    0.022 (m/s)/m
   Assumed rotor diameter                           =  200.000 m
   Surface roughness length                         =    0.030 m

   Number of time steps in the FFT                  =   108300
   Number of time steps output                      =   108288


Mean Flow Angles:

   Vertical   =   0.0 degrees
   Horizontal =   0.0 degrees

Mean Wind Speed Profile:

   Height    Wind Speed   Horizontal Angle  U-comp (X)   V-comp (Y)   W-comp (Z)
     (m)        (m/s)         (degrees)       (m/s)        (m/s)        (m/s)   
   ------    ----------   ----------------  ----------   ----------   ----------
    219.0       15.14            0.00         15.14         0.00         0.00
    212.8       15.08            0.00         15.08         0.00         0.00
    206.5       15.02            0.00         15.02         0.00         0.00
    200.2       14.95            0.00         14.95         0.00         0.00
    194.0       14.88            0.00         14.88         0.00         0.00
    187.8       14.82            0.00         14.82         0.00         0.00
    181.5       14.75            0.00         14.75         0.00         0.00
    175.2       14.67            0.00         14.67         0.00         0.00
    169.0       14.60            0.00         14.60         0.00         0.00
    162.8       14.52            0.00         14.52         0.00         0.00
    156.5       14.44            0.00         14.44         0.00         0.00
    150.2       14.36            0.00         14.36         0.00         0.00
    144.0       14.28            0.00         14.28         0.00         0.00
    137.8       14.19            0.00         14.19         0.00         0.00
    131.5       14.10            0.00         14.10         0.00         0.00
    125.2       14.00            0.00         14.00         0.00         0.00
    119.0       13.90            0.00         13.90         0.00         0.00
    112.8       13.80            0.00         13.80         0.00         0.00
    106.5       13.69            0.00         13.69         0.00         0.00
    100.2       13.57            0.00         13.57         0.00         0.00
     94.0       13.45            0.00         13.45         0.00         0.00
     87.8       13.32            0.00         13.32         0.00         0.00
     81.5       13.18            0.00         13.18         0.00         0.00
     75.2       13.04            0.00         13.04         0.00         0.00
     69.0       12.88            0.00         12.88         0.00         0.00
     62.8       12.71            0.00         12.71         0.00         0.00
     56.5       12.52            0.00         12.52         0.00         0.00
     50.2       12.32            0.00         12.32         0.00         0.00
     44.0       12.09            0.00         12.09         0.00         0.00
     37.8       11.84            0.00         11.84         0.00         0.00
     31.5       11.54            0.00         11.54         0.00         0.00
     25.2       11.19            0.00         11.19         0.00         0.00
     19.0       10.75            0.00         10.75         0.00         0.00


Harvested Random Seeds after Generation of the Random Numbers:

   1645377696 Harvested seed # 1
   1442404792 Harvested seed # 2


Scaling statistics from the hub grid point:

  Component  Target Sigma (m/s)  Simulated Sigma (m/s)  Scaling Factor
  ---------  ------------------  ---------------------  --------------
     u'             1.923                1.963                0.979
     v'             1.538                1.524                1.010
     w'             0.961                0.941                1.022


Hub-Height Simulated Turbulence Statistical Summary:

   Type of Wind        Min (m/s)   Mean (m/s)    Max (m/s)  Sigma (m/s)       TI (%)
   ----------------    ---------   ----------    ---------  -----------       ------
   Longitudinal (u)         6.61        13.90        23.02        1.923       13.835
   Lateral (v)             -7.69         0.00         5.65        1.538       11.068
   Vertical (w)            -4.16         0.00         3.85        0.961        6.917
   U component              6.61        13.90        23.02        1.923       13.835
   V component             -7.69         0.00         5.65        1.538       11.068
   W component             -4.16         0.00         3.85        0.961        6.917
   Horizontal (U&V)         7.00        13.99        23.11        1.915       13.692
   Total                    7.12        14.02        23.12        1.910       13.625

                       Min Reynolds     Mean Reynolds    Max Reynolds    Correlation
   Product             Stress (m/s)^2   Stress (m/s)^2   Stress (m/s)^2  Coefficient
   ----------------    --------------   --------------   --------------  -----------
   u'w'                    -19.434             0.004            15.662         0.002
   u'v'                    -31.336            -0.101            17.509        -0.034
   v'w'                    -13.571            -0.031            13.657        -0.021


   Friction Velocity (Ustar)  =      0.061 m/s
   Maximum Instantaneous TKE  =     43.976 (m/s)^2
   Maximum Instantaneous CTKE =     15.753 (m/s)^2


Grid Point Variance Summary:

   Y-coord -100.00  -93.75  -87.50  -81.25  -75.00  -68.75  -62.50  -56.25  -50.00  -43.75  -37.50  -31.25  -25.00  -18.75  -12.50   -6.25    0.00    6.25   12.50   18.75   25.00   31.25   37.50   43.75   50.00   56.25   62.50   68.75   75.00   81.25   87.50   93.75  100.00

   Height   Standard deviation at grid points for the u component:
   219.00    1.913   1.851   1.894   1.858   1.819   1.831   1.799   1.787   1.802   1.781   1.803   1.764   1.737   1.779   1.810   1.796   1.760   1.769   1.789   1.815   1.848   1.902   1.872   1.900   1.930   1.938   1.934   1.884   1.871   1.828   1.786   1.804   1.786
   212.75    1.892   1.862   1.854   1.841   1.833   1.823   1.836   1.839   1.832   1.827   1.807   1.804   1.778   1.803   1.799   1.794   1.772   1.775   1.819   1.869   1.900   1.906   1.943   1.922   1.946   1.910   1.892   1.848   1.808   1.834   1.846   1.803   1.805
   206.50    1.842   1.842   1.861   1.844   1.796   1.781   1.781   1.818   1.836   1.856   1.846   1.791   1.795   1.822   1.774   1.767   1.762   1.806   1.827   1.875   1.920   1.938   1.938   1.960   1.938   1.910   1.832   1.858   1.847   1.855   1.866   1.861   1.843
   200.25    1.847   1.819   1.858   1.869   1.810   1.777   1.823   1.835   1.829   1.864   1.821   1.813   1.797   1.809   1.786   1.778   1.796   1.810   1.856   1.912   1.949   1.938   1.937   1.961   1.961   1.919   1.864   1.826   1.853   1.873   1.891   1.880   1.842
   194.00    1.838   1.821   1.882   1.877   1.832   1.837   1.809   1.808   1.837   1.829   1.836   1.823   1.811   1.803   1.810   1.800   1.819   1.866   1.894   1.932   1.953   1.999   1.977   1.965   1.962   1.898   1.861   1.840   1.846   1.864   1.905   1.895   1.843
   187.75    1.886   1.874   1.884   1.888   1.858   1.849   1.840   1.849   1.858   1.881   1.864   1.840   1.838   1.814   1.805   1.787   1.856   1.874   1.902   1.961   1.982   1.990   1.989   1.970   1.961   1.936   1.874   1.907   1.872   1.871   1.905   1.861   1.848
   181.50    1.863   1.862   1.887   1.913   1.879   1.890   1.855   1.858   1.859   1.878   1.863   1.862   1.883   1.825   1.858   1.865   1.852   1.885   1.895   1.922   2.004   1.968   1.980   1.939   1.941   1.968   1.950   1.923   1.904   1.902   1.897   1.899   1.906
   175.25    1.868   1.895   1.921   1.922   1.890   1.883   1.887   1.865   1.856   1.871   1.831   1.851   1.850   1.843   1.871   1.850   1.886   1.913   1.906   1.985   1.971   1.963   1.989   2.005   1.931   1.940   1.947   1.923   1.924   1.948   1.963   1.965   1.938
   169.00    1.828   1.869   1.909   1.904   1.899   1.870   1.903   1.878   1.863   1.872   1.845   1.877   1.828   1.860   1.852   1.875   1.906   1.921   1.921   1.947   1.970   1.964   1.964   1.965   1.932   1.947   1.931   1.903   1.947   1.942   1.958   1.965   1.943
   162.75    1.839   1.840   1.878   1.861   1.865   1.878   1.845   1.850   1.823   1.814   1.805   1.838   1.842   1.834   1.840   1.888   1.866   1.922   1.962   1.944   1.946   1.938   1.960   1.947   1.935   1.939   1.924   1.905   1.936   1.911   1.957   1.982   1.935
   156.50    1.849   1.872   1.846   1.817   1.833   1.846   1.840   1.805   1.802   1.784   1.787   1.838   1.897   1.851   1.877   1.890   1.842   1.902   1.946   1.938   1.933   1.949   1.941   1.924   1.927   1.970   1.954   1.920   1.922   1.941   1.967   1.987   1.968
   150.25    1.889   1.861   1.847   1.848   1.811   1.789   1.841   1.842   1.786   1.822   1.826   1.846   1.844   1.850   1.885   1.901   1.880   1.889   1.909   1.890   1.912   1.939   1.904   1.921   1.944   1.962   1.930   1.942   1.940   1.976   2.008   1.961   1.948
   144.00    1.896   1.901   1.890   1.874   1.806   1.782   1.776   1.825   1.845   1.829   1.827   1.837   1.850   1.857   1.886   1.924   1.906   1.908   1.901   1.906   1.911   1.903   1.928   1.927   1.948   1.958   1.933   1.926   1.931   1.929   1.968   1.954   1.932
   137.75    1.863   1.877   1.868   1.811   1.776   1.750   1.755   1.769   1.785   1.812   1.842   1.830   1.847   1.856   1.900   1.958   1.947   1.911   1.894   1.890   1.906   1.923   1.942   1.895   1.919   1.937   1.896   1.936   1.967   1.950   1.972   1.992   1.972
   131.50    1.865   1.880   1.896   1.848   1.802   1.769   1.806   1.759   1.794   1.783   1.847   1.829   1.867   1.903   1.909   1.963   1.942   1.929   1.898   1.902   1.880   1.912   1.966   1.929   1.921   1.925   1.949   1.960   1.984   1.975   1.977   1.946   1.949
   125.25    1.924   1.879   1.854   1.876   1.814   1.831   1.814   1.844   1.855   1.875   1.868   1.890   1.904   1.915   1.914   1.943   1.960   1.950   1.899   1.897   1.917   1.924   1.947   1.955   1.966   1.951   1.970   2.002   2.001   2.001   1.959   1.965   1.916
   119.00    1.898   1.875   1.857   1.865   1.849   1.838   1.818   1.859   1.845   1.898   1.881   1.879   1.922   1.905   1.913   1.919   1.923   1.936   1.938   1.916   1.899   1.940   1.917   1.920   1.961   1.948   1.968   2.001   1.992   1.948   1.963   1.936   1.926
   112.75    1.870   1.880   1.860   1.842   1.855   1.838   1.824   1.845   1.874   1.896   1.911   1.924   1.908   1.896   1.917   1.919   1.917   1.934   1.891   1.909   1.934   1.921   1.861   1.883   1.914   1.912   1.894   1.944   1.955   1.938   1.919   1.899   1.906
   106.50    1.846   1.826   1.850   1.855   1.892   1.856   1.842   1.843   1.846   1.859   1.898   1.928   1.920   1.908   1.908   1.907   1.885   1.926   1.901   1.858   1.859   1.854   1.858   1.866   1.879   1.872   1.849   1.899   1.911   1.864   1.886   1.877   1.869
   100.25    1.826   1.811   1.807   1.821   1.868   1.858   1.828   1.868   1.842   1.857   1.872   1.889   1.945   1.911   1.899   1.893   1.884   1.884   1.899   1.847   1.850   1.827   1.850   1.864   1.849   1.846   1.871   1.869   1.855   1.819   1.827   1.851   1.863
    94.00    1.797   1.786   1.802   1.834   1.811   1.840   1.836   1.860   1.877   1.892   1.884   1.871   1.899   1.845   1.883   1.895   1.910   1.879   1.861   1.819   1.813   1.807   1.809   1.840   1.842   1.859   1.890   1.861   1.874   1.867   1.866   1.833   1.864
    87.75    1.789   1.786   1.788   1.829   1.893   1.890   1.878   1.886   1.882   1.854   1.836   1.854   1.850   1.866   1.867   1.886   1.824   1.835   1.853   1.816   1.854   1.826   1.774   1.782   1.773   1.839   1.912   1.889   1.862   1.908   1.898   1.892   1.835
    81.50    1.826   1.807   1.836   1.859   1.883   1.895   1.878   1.880   1.881   1.851   1.844   1.847   1.867   1.872   1.844   1.859   1.843   1.837   1.848   1.871   1.853   1.841   1.816   1.804   1.847   1.866   1.908   1.905   1.903   1.884   1.878   1.855   1.857
    75.25    1.845   1.839   1.878   1.920   1.890   1.900   1.894   1.854   1.824   1.828   1.807   1.816   1.847   1.850   1.876   1.831   1.861   1.844   1.872   1.859   1.873   1.866   1.840   1.869   1.851   1.827   1.865   1.882   1.908   1.877   1.864   1.838   1.807
    69.00    1.891   1.929   1.946   1.916   1.900   1.882   1.871   1.854   1.811   1.819   1.798   1.823   1.858   1.823   1.796   1.857   1.893   1.879   1.872   1.905   1.869   1.876   1.891   1.891   1.897   1.858   1.823   1.872   1.882   1.860   1.862   1.843   1.823
    62.75    1.885   1.954   1.964   1.949   1.884   1.857   1.881   1.860   1.827   1.798   1.812   1.846   1.867   1.862   1.836   1.826   1.840   1.875   1.906   1.899   1.882   1.881   1.901   1.894   1.881   1.880   1.853   1.881   1.869   1.873   1.848   1.836   1.823
    56.50    1.891   1.929   1.906   1.881   1.885   1.883   1.896   1.860   1.823   1.819   1.836   1.865   1.871   1.868   1.845   1.819   1.850   1.872   1.866   1.921   1.928   1.899   1.900   1.916   1.910   1.871   1.879   1.873   1.884   1.895   1.869   1.841   1.835
    50.25    1.844   1.888   1.892   1.854   1.885   1.842   1.862   1.866   1.836   1.803   1.819   1.846   1.884   1.860   1.856   1.846   1.860   1.899   1.866   1.904   1.867   1.922   1.939   1.915   1.915   1.932   1.905   1.864   1.877   1.874   1.867   1.829   1.866
    44.00    1.820   1.852   1.853   1.834   1.881   1.878   1.892   1.840   1.825   1.825   1.821   1.824   1.837   1.894   1.856   1.871   1.867   1.862   1.875   1.895   1.879   1.863   1.921   1.912   1.927   1.885   1.864   1.858   1.829   1.867   1.838   1.837   1.812
    37.75    1.821   1.804   1.847   1.852   1.878   1.912   1.885   1.855   1.800   1.803   1.844   1.835   1.820   1.827   1.843   1.888   1.837   1.840   1.873   1.854   1.872   1.877   1.884   1.880   1.875   1.876   1.873   1.818   1.850   1.832   1.834   1.823   1.840
    31.50    1.811   1.797   1.820   1.842   1.897   1.909   1.897   1.844   1.830   1.838   1.831   1.836   1.830   1.838   1.868   1.863   1.846   1.878   1.900   1.877   1.901   1.913   1.901   1.916   1.865   1.878   1.850   1.838   1.790   1.848   1.853   1.831   1.848
    25.25    1.866   1.846   1.842   1.821   1.808   1.854   1.855   1.832   1.785   1.825   1.844   1.781   1.809   1.822   1.877   1.896   1.875   1.913   1.899   1.923   1.903   1.909   1.907   1.904   1.885   1.849   1.873   1.818   1.793   1.803   1.874   1.852   1.871
    19.00    1.868   1.855   1.837   1.818   1.783   1.786   1.841   1.853   1.807   1.804   1.802   1.779   1.784   1.819   1.834   1.883   1.893   1.913   1.916   1.897   1.900   1.881   1.896   1.902   1.906   1.870   1.872   1.841   1.779   1.794   1.828   1.831   1.858

   Height   Standard deviation at grid points for the v component:
   219.00    1.538   1.538   1.538   1.538   1.538   1.538   1.538   1.538   1.538   1.538   1.538   1.538   1.538   1.538   1.538   1.538   1.538   1.538   1.538   1.538   1.538   1.538   1.538   1.538   1.538   1.538   1.538   1.538   1.538   1.538   1.538   1.538   1.538
   212.75    1.538   1.538   1.538   1.538   1.538   1.538   1.538   1.538   1.538   1.538   1.538   1.538   1.538   1.538   1.538   1.538   1.538   1.538   1.538   1.538   1.538   1.538   1.538   1.538   1.538   1.538   1.538   1.538   1.538   1.538   1.538   1.538   1.538
   206.50    1.538   1.538   1.538   1.538   1.538   1.538   1.538   1.538   1.538   1.538   1.538   1.538   1.538   1.538   1.538   1.538   1.538   1.538   1.538   1.538   1.538   1.538   1.538   1.538   1.538   1.538   1.538   1.538   1.538   1.538   1.538   1.538   1.538
   200.25    1.538   1.538   1.538   1.538   1.538   1.538   1.538   1.538   1.538   1.538   1.538   1.538   1.538   1.538   1.538   1.538   1.538   1.538   1.538   1.538   1.538   1.538   1.538   1.538   1.538   1.538   1.538   1.538   1.538   1.538   1.538   1.538   1.538
   194.00    1.538   1.538   1.538   1.538   1.538   1.538   1.538   1.538   1.538   1.538   1.538   1.538   1.538   1.538   1.538   1.538   1.538   1.538   1.538   1.538   1.538   1.538   1.538   1.538   1.538   1.538   1.538   1.538   1.538   1.538   1.538   1.538   1.538
   187.75    1.538   1.538   1.538   1.538   1.538   1.538   1.538   1.538   1.538   1.538   1.538   1.538   1.538   1.538   1.538   1.538   1.538   1.538   1.538   1.538   1.538   1.538   1.538   1.538   1.538   1.538   1.538   1.538   1.538   1.538   1.538   1.538   1.538
   181.50    1.538   1.538   1.538   1.538   1.538   1.538   1.538   1.538   1.538   1.538   1.538   1.538   1.538   1.538   1.538   1.538   1.538   1.538   1.538   1.538   1.538   1.538   1.538   1.538   1.538   1.538   1.538   1.538   1.538   1.538   1.538   1.538   1.538
   175.25    1.538   1.538   1.538   1.538   1.538   1.538   1.538   1.538   1.538   1.538   1.538   1.538   1.538   1.538   1.538   1.538   1.538   1.538   1.538   1.538   1.538   1.538   1.538   1.538   1.538   1.538   1.538   1.538   1.538   1.538   1.538   1.538   1.538
   169.00    1.538   1.538   1.538   1.538   1.538   1.538   1.538   1.538   1.538   1.538   1.538   1.538   1.538   1.538   1.538   1.538   1.538   1.538   1.538   1.538   1.538   1.538   1.538   1.538   1.538   1.538   1.538   1.538   1.538   1.538   1.538   1.538   1.538
   162.75    1.538   1.538   1.538   1.538   1.538   1.538   1.538   1.538   1.538   1.538   1.538   1.538   1.538   1.538   1.538   1.538   1.538   1.538   1.538   1.538   1.538   1.538   1.538   1.538   1.538   1.538   1.538   1.538   1.538   1.538   1.538   1.538   1.538
   156.50    1.538   1.538   1.538   1.538   1.538   1.538   1.538   1.538   1.538   1.538   1.538   1.538   1.538   1.538   1.538   1.538   1.538   1.538   1.538   1.538   1.538   1.538   1.538   1.538   1.538   1.538   1.538   1.538   1.538   1.538   1.538   1.538   1.538
   150.25    1.538   1.538   1.538   1.538   1.538   1.538   1.538   1.538   1.538   1.538   1.538   1.538   1.538   1.538   1.538   1.538   1.538   1.538   1.538   1.538   1.538   1.538   1.538   1.538   1.538   1.538   1.538   1.538   1.538   1.538   1.538   1.538   1.538
   144.00    1.538   1.538   1.538   1.538   1.538   1.538   1.538   1.538   1.538   1.538   1.538   1.538   1.538   1.538   1.538   1.538   1.538   1.538   1.538   1.538   1.538   1.538   1.538   1.538   1.538   1.538   1.538   1.538   1.538   1.538   1.538   1.538   1.538
   137.75    1.538   1.538   1.538   1.538   1.538   1.538   1.538   1.538   1.538   1.538   1.538   1.538   1.538   1.538   1.538   1.538   1.538   1.538   1.538   1.538   1.538   1.538   1.538   1.538   1.538   1.538   1.538   1.538   1.538   1.538   1.538   1.538   1.538
   131.50    1.538   1.538   1.538   1.538   1.538   1.538   1.538   1.538   1.538   1.538   1.538   1.538   1.538   1.538   1.538   1.538   1.538   1.538   1.538   1.538   1.538   1.538   1.538   1.538   1.538   1.538   1.538   1.538   1.538   1.538   1.538   1.538   1.538
   125.25    1.538   1.538   1.538   1.538   1.538   1.538   1.538   1.538   1.538   1.538   1.538   1.538   1.538   1.538   1.538   1.538   1.538   1.538   1.538   1.538   1.538   1.538   1.538   1.538   1.538   1.538   1.538   1.538   1.538   1.538   1.538   1.538   1.538
   119.00    1.538   1.538   1.538   1.538   1.538   1.538   1.538   1.538   1.538   1.538   1.538   1.538   1.538   1.538   1.538   1.538   1.538   1.538   1.538   1.538   1.538   1.538   1.538   1.538   1.538   1.538   1.538   1.538   1.538   1.538   1.538   1.538   1.538
   112.75    1.538   1.538   1.538   1.538   1.538   1.538   1.538   1.538   1.538   1.538   1.538   1.538   1.538   1.538   1.538   1.538   1.538   1.538   1.538   1.538   1.538   1.538   1.538   1.538   1.538   1.538   1.538   1.538   1.538   1.538   1.538   1.538   1.538
   106.50    1.538   1.538   1.538   1.538   1.538   1.538   1.538   1.538   1.538   1.538   1.538   1.538   1.538   1.538   1.538   1.538   1.538   1.538   1.538   1.538   1.538   1.538   1.538   1.538   1.538   1.538   1.538   1.538   1.538   1.538   1.538   1.538   1.538
   100.25    1.538   1.538   1.538   1.538   1.538   1.538   1.538   1.538   1.538   1.538   1.538   1.538   1.538   1.538   1.538   1.538   1.538   1.538   1.538   1.538   1.538   1.538   1.538   1.538   1.538   1.538   1.538   1.538   1.538   1.538   1.538   1.538   1.538
    94.00    1.538   1.538   1.538   1.538   1.538   1.538   1.538   1.538   1.538   1.538   1.538   1.538   1.538   1.538   1.538   1.538   1.538   1.538   1.538   1.538   1.538   1.538   1.538   1.538   1.538   1.538   1.538   1.538   1.538   1.538   1.538   1.538   1.538
    87.75    1.538   1.538   1.538   1.538   1.538   1.538   1.538   1.538   1.538   1.538   1.538   1.538   1.538   1.538   1.538   1.538   1.538   1.538   1.538   1.538   1.538   1.538   1.538   1.538   1.538   1.538   1.538   1.538   1.538   1.538   1.538   1.538   1.538
    81.50    1.538   1.538   1.538   1.538   1.538   1.538   1.538   1.538   1.538   1.538   1.538   1.538   1.538   1.538   1.538   1.538   1.538   1.538   1.538   1.538   1.538   1.538   1.538   1.538   1.538   1.538   1.538   1.538   1.538   1.538   1.538   1.538   1.538
    75.25    1.538   1.538   1.538   1.538   1.538   1.538   1.538   1.538   1.538   1.538   1.538   1.538   1.538   1.538   1.538   1.538   1.538   1.538   1.538   1.538   1.538   1.538   1.538   1.538   1.538   1.538   1.538   1.538   1.538   1.538   1.538   1.538   1.538
    69.00    1.538   1.538   1.538   1.538   1.538   1.538   1.538   1.538   1.538   1.538   1.538   1.538   1.538   1.538   1.538   1.538   1.538   1.538   1.538   1.538   1.538   1.538   1.538   1.538   1.538   1.538   1.538   1.538   1.538   1.538   1.538   1.538   1.538
    62.75    1.538   1.538   1.538   1.538   1.538   1.538   1.538   1.538   1.538   1.538   1.538   1.538   1.538   1.538   1.538   1.538   1.538   1.538   1.538   1.538   1.538   1.538   1.538   1.538   1.538   1.538   1.538   1.538   1.538   1.538   1.538   1.538   1.538
    56.50    1.538   1.538   1.538   1.538   1.538   1.538   1.538   1.538   1.538   1.538   1.538   1.538   1.538   1.538   1.538   1.538   1.538   1.538   1.538   1.538   1.538   1.538   1.538   1.538   1.538   1.538   1.538   1.538   1.538   1.538   1.538   1.538   1.538
    50.25    1.538   1.538   1.538   1.538   1.538   1.538   1.538   1.538   1.538   1.538   1.538   1.538   1.538   1.538   1.538   1.538   1.538   1.538   1.538   1.538   1.538   1.538   1.538   1.538   1.538   1.538   1.538   1.538   1.538   1.538   1.538   1.538   1.538
    44.00    1.538   1.538   1.538   1.538   1.538   1.538   1.538   1.538   1.538   1.538   1.538   1.538   1.538   1.538   1.538   1.538   1.538   1.538   1.538   1.538   1.538   1.538   1.538   1.538   1.538   1.538   1.538   1.538   1.538   1.538   1.538   1.538   1.538
    37.75    1.538   1.538   1.538   1.538   1.538   1.538   1.538   1.538   1.538   1.538   1.538   1.538   1.538   1.538   1.538   1.538   1.538   1.538   1.538   1.538   1.538   1.538   1.538   1.538   1.538   1.538   1.538   1.538   1.538   1.538   1.538   1.538   1.538
    31.50    1.538   1.538   1.538   1.538   1.538   1.538   1.538   1.538   1.538   1.538   1.538   1.538   1.538   1.538   1.538   1.538   1.538   1.538   1.538   1.538   1.538   1.538   1.538   1.538   1.538   1.538   1.538   1.538   1.538   1.538   1.538   1.538   1.538
    25.25    1.538   1.538   1.538   1.538   1.538   1.538   1.538   1.538   1.538   1.538   1.538   1.538   1.538   1.538   1.538   1.538   1.538   1.538   1.538   1.538   1.538   1.538   1.538   1.538   1.538   1.538   1.538   1.538   1.538   1.538   1.538   1.538   1.538
    19.00    1.538   1.538   1.538   1.538   1.538   1.538   1.538   1.538   1.538   1.538   1.538   1.538   1.538   1.538   1.538   1.538   1.538   1.538   1.538   1.538   1.538   1.538   1.538   1.538   1.538   1.538   1.538   1.538   1.538   1.538   1.538   1.538   1.538

   Height   Standard deviation at grid points for the w component:
   219.00    0.961   0.961   0.961   0.961   0.961   0.961   0.961   0.961   0.961   0.962   0.961   0.961   0.961   0.962   0.961   0.961   0.961   0.961   0.961   0.961   0.962   0.961   0.961   0.961   0.962   0.961   0.961   0.961   0.961   0.961   0.961   0.961   0.961
   212.75    0.961   0.961   0.961   0.961   0.962   0.961   0.961   0.961   0.961   0.961   0.961   0.961   0.961   0.961   0.961   0.961   0.961   0.961   0.961   0.961   0.961   0.961   0.961   0.961   0.961   0.961   0.961   0.961   0.961   0.961   0.961   0.961   0.961
   206.50    0.961   0.961   0.961   0.961   0.961   0.961   0.961   0.961   0.961   0.961   0.961   0.961   0.961   0.961   0.961   0.961   0.961   0.961   0.961   0.961   0.961   0.961   0.961   0.961   0.961   0.961   0.961   0.961   0.961   0.961   0.961   0.961   0.961
   200.25    0.961   0.961   0.961   0.961   0.961   0.962   0.961   0.961   0.961   0.961   0.961   0.961   0.961   0.961   0.961   0.961   0.961   0.961   0.961   0.961   0.961   0.961   0.961   0.961   0.961   0.961   0.961   0.961   0.961   0.961   0.961   0.962   0.961
   194.00    0.961   0.961   0.961   0.961   0.961   0.961   0.961   0.961   0.961   0.961   0.961   0.961   0.961   0.961   0.961   0.961   0.961   0.961   0.961   0.961   0.961   0.961   0.961   0.961   0.961   0.961   0.961   0.961   0.961   0.961   0.961   0.961   0.961
   187.75    0.961   0.961   0.961   0.961   0.961   0.961   0.961   0.961   0.961   0.961   0.961   0.961   0.961   0.961   0.961   0.961   0.961   0.961   0.961   0.961   0.962   0.961   0.961   0.961   0.961   0.961   0.961   0.961   0.961   0.961   0.961   0.961   0.961
   181.50    0.961   0.961   0.961   0.961   0.961   0.961   0.961   0.961   0.961   0.961   0.961   0.961   0.961   0.961   0.961   0.961   0.961   0.961   0.961   0.961   0.961   0.961   0.961   0.961   0.961   0.962   0.961   0.961   0.961   0.961   0.961   0.961   0.961
   175.25    0.961   0.961   0.961   0.961   0.961   0.961   0.962   0.961   0.961   0.961   0.961   0.961   0.961   0.961   0.961   0.961   0.961   0.961   0.961   0.961   0.961   0.961   0.961   0.961   0.961   0.961   0.961   0.961   0.961   0.961   0.961   0.961   0.961
   169.00    0.961   0.961   0.961   0.961   0.961   0.961   0.961   0.961   0.961   0.961   0.961   0.961   0.961   0.961   0.961   0.961   0.961   0.961   0.961   0.961   0.961   0.961   0.961   0.961   0.961   0.961   0.961   0.961   0.961   0.961   0.961   0.961   0.961
   162.75    0.961   0.961   0.961   0.961   0.961   0.961   0.961   0.961   0.961   0.961   0.961   0.961   0.961   0.961   0.961   0.961   0.961   0.961   0.961   0.961   0.961   0.961   0.961   0.961   0.961   0.961   0.961   0.961   0.961   0.961   0.961   0.961   0.961
   156.50    0.961   0.961   0.961   0.962   0.961   0.961   0.961   0.961   0.961   0.961   0.961   0.961   0.961   0.961   0.961   0.961   0.961   0.961   0.961   0.961   0.961   0.962   0.961   0.961   0.961   0.961   0.961   0.961   0.961   0.961   0.961   0.961   0.961
   150.25    0.961   0.961   0.961   0.961   0.961   0.961   0.961   0.961   0.961   0.961   0.961   0.961   0.961   0.961   0.961   0.961   0.961   0.961   0.961   0.961   0.961   0.961   0.961   0.961   0.961   0.961   0.961   0.961   0.961   0.961   0.961   0.961   0.961
   144.00    0.961   0.962   0.961   0.961   0.961   0.961   0.961   0.961   0.961   0.961   0.961   0.961   0.961   0.961   0.961   0.961   0.961   0.961   0.962   0.961   0.962   0.961   0.961   0.961   0.961   0.961   0.961   0.961   0.961   0.961   0.961   0.961   0.961
   137.75    0.962   0.961   0.961   0.961   0.961   0.961   0.961   0.961   0.961   0.961   0.961   0.962   0.962   0.961   0.961   0.961   0.961   0.961   0.961   0.961   0.961   0.961   0.961   0.961   0.961   0.961   0.961   0.961   0.961   0.961   0.961   0.961   0.961
   131.50    0.961   0.961   0.961   0.961   0.961   0.961   0.961   0.961   0.962   0.961   0.961   0.961   0.961   0.961   0.961   0.961   0.961   0.961   0.961   0.962   0.961   0.961   0.961   0.961   0.961   0.961   0.961   0.961   0.961   0.961   0.961   0.961   0.961
   125.25    0.961   0.961   0.961   0.961   0.961   0.961   0.961   0.961   0.961   0.961   0.961   0.961   0.961   0.961   0.961   0.961   0.961   0.961   0.961   0.961   0.961   0.961   0.961   0.961   0.961   0.961   0.961   0.961   0.961   0.961   0.961   0.961   0.961
   119.00    0.961   0.961   0.961   0.961   0.961   0.961   0.961   0.961   0.961   0.961   0.961   0.961   0.961   0.961   0.961   0.961   0.961   0.961   0.961   0.961   0.961   0.961   0.961   0.961   0.962   0.961   0.961   0.962   0.961   0.961   0.961   0.961   0.961
   112.75    0.961   0.961   0.961   0.961   0.961   0.962   0.961   0.961   0.961   0.961   0.961   0.961   0.961   0.961   0.961   0.961   0.961   0.961   0.962   0.962   0.961   0.961   0.961   0.961   0.961   0.961   0.961   0.961   0.961   0.961   0.961   0.961   0.961
   106.50    0.961   0.961   0.961   0.961   0.961   0.961   0.961   0.961   0.961   0.961   0.961   0.961   0.961   0.961   0.961   0.962   0.961   0.961   0.961   0.961   0.961   0.961   0.961   0.961   0.961   0.961   0.961   0.961   0.961   0.961   0.961   0.961   0.961
   100.25    0.961   0.961   0.961   0.962   0.961   0.961   0.961   0.962   0.961   0.961   0.961   0.961   0.961   0.961   0.961   0.961   0.961   0.961   0.961   0.961   0.961   0.961   0.961   0.962   0.961   0.961   0.961   0.961   0.961   0.961   0.961   0.961   0.961
    94.00    0.961   0.961   0.961   0.961   0.961   0.961   0.961   0.961   0.962   0.961   0.961   0.961   0.961   0.961   0.961   0.962   0.961   0.961   0.961   0.961   0.961   0.961   0.961   0.961   0.961   0.961   0.961   0.961   0.961   0.961   0.961   0.961   0.962
    87.75    0.961   0.961   0.962   0.961   0.961   0.961   0.961   0.961   0.961   0.961   0.961   0.961   0.961   0.961   0.961   0.961   0.961   0.961   0.961   0.961   0.961   0.961   0.961   0.961   0.961   0.961   0.961   0.961   0.961   0.961   0.961   0.961   0.961
    81.50    0.961   0.961   0.961   0.961   0.961   0.961   0.961   0.961   0.961   0.961   0.961   0.961   0.961   0.961   0.961   0.961   0.961   0.961   0.961   0.961   0.961   0.961   0.961   0.961   0.961   0.961   0.961   0.961   0.961   0.961   0.961   0.961   0.961
    75.25    0.961   0.961   0.961   0.961   0.962   0.961   0.961   0.961   0.961   0.961   0.961   0.961   0.961   0.961   0.961   0.961   0.961   0.961   0.961   0.961   0.961   0.961   0.961   0.961   0.961   0.961   0.961   0.961   0.961   0.961   0.961   0.961   0.961
    69.00    0.961   0.961   0.961   0.961   0.961   0.961   0.961   0.961   0.961   0.962   0.961   0.961   0.961   0.961   0.961   0.961   0.961   0.961   0.961   0.961   0.961   0.961   0.961   0.961   0.961   0.961   0.961   0.961   0.961   0.961   0.961   0.961   0.961
    62.75    0.961   0.961   0.961   0.961   0.961   0.961   0.961   0.961   0.961   0.961   0.961   0.961   0.961   0.961   0.961   0.961   0.961   0.961   0.961   0.961   0.961   0.961   0.961   0.961   0.961   0.961   0.961   0.961   0.961   0.961   0.961   0.961   0.961
    56.50    0.961   0.961   0.961   0.961   0.961   0.961   0.961   0.961   0.961   0.961   0.961   0.961   0.961   0.961   0.961   0.961   0.961   0.961   0.961   0.961   0.961   0.961   0.961   0.961   0.961   0.961   0.961   0.961   0.961   0.961   0.961   0.961   0.961
    50.25    0.961   0.961   0.961   0.961   0.961   0.961   0.961   0.961   0.961   0.961   0.961   0.961   0.961   0.961   0.961   0.961   0.961   0.961   0.961   0.961   0.961   0.961   0.961   0.961   0.961   0.961   0.961   0.961   0.961   0.961   0.961   0.961   0.961
    44.00    0.961   0.961   0.961   0.961   0.961   0.961   0.961   0.961   0.961   0.961   0.961   0.961   0.961   0.961   0.962   0.961   0.961   0.961   0.961   0.961   0.961   0.961   0.962   0.961   0.961   0.961   0.961   0.961   0.962   0.961   0.962   0.961   0.961
    37.75    0.961   0.961   0.961   0.961   0.961   0.961   0.961   0.961   0.961   0.961   0.961   0.961   0.961   0.961   0.961   0.961   0.961   0.962   0.961   0.961   0.961   0.961   0.961   0.961   0.961   0.961   0.961   0.961   0.961   0.961   0.961   0.961   0.961
    31.50    0.961   0.961   0.961   0.961   0.962   0.961   0.961   0.961   0.961   0.961   0.961   0.961   0.961   0.961   0.961   0.961   0.961   0.961   0.961   0.961   0.961   0.961   0.961   0.961   0.961   0.961   0.961   0.962   0.961   0.961   0.961   0.961   0.961
    25.25    0.961   0.961   0.961   0.961   0.961   0.961   0.961   0.961   0.961   0.961   0.961   0.961   0.961   0.961   0.961   0.961   0.961   0.961   0.961   0.962   0.961   0.961   0.961   0.961   0.961   0.961   0.961   0.962   0.961   0.961   0.961   0.961   0.961
    19.00    0.961   0.961   0.961   0.961   0.961   0.961   0.961   0.961   0.961   0.961   0.961   0.962   0.961   0.961   0.961   0.961   0.961   0.961   0.961   0.961   0.961   0.961   0.961   0.961   0.961   0.961   0.961   0.961   0.961   0.961   0.961   0.961   0.961

   Mean standard deviation across all grid points:
      u component:    1.873 m/s
      v component:    1.538 m/s
      w component:    0.961 m/s


U-component (X) statistics from the hub grid point:

   Mean =  13.9000 m/s
   TI   =  13.8345 %

Nyquist frequency of turbulent wind field =        10.000 Hz


Processing complete.  3341.5 CPU seconds used.
