
This summary file was generated by TurbSim (v1.06.00, 21-Sep-2012) on 20-Sep-2017 at 17:58:27.


Runtime Options:

    123456  Random seed #1
    789012  Random seed #2
         F  Output binary HH turbulence parameters?
         F  Output formatted turbulence parameters?
         F  Output AeroDyn HH files?
         T  Output AeroDyn FF files?
         F  Output BLADED FF files?
         F  Output tower data?
         F  Output formatted FF files?
         F  Output coherent turbulence time step file?
         T  Clockwise rotation when looking downwind?
 1 -   HUB  IEC turbulence models scaled to exact specified standard deviation


Turbine/Model Specifications:

        33  Vertical grid-point matrix dimension
        33  Horizontal grid-point matrix dimension
     0.050  Time step [seconds]
  5400.000  Analysis time [seconds]
  5400.000  Usable output time [seconds]
   119.000  Hub height [m]
   200.000  Grid height [m]
   200.000  Grid width [m]
     0.000  Vertical flow angle [degrees]
     0.000  Horizontal flow angle [degrees]


Meteorological Boundary Conditions:

    IECKAI  IEC Kaimal spectral model
         3  IEC standard: IEC 61400-3 Ed. 1: 2006
         C  IEC turbulence characteristic
       NTM  IEC Normal Turbulence Model
       N/A  IEC Extreme Turbulence Model (ETM) "c" parameter [m/s]
       IEC  Wind profile type
   119.000  Reference height [m]
    17.900  Reference wind speed [m/s]
       N/A  Jet height [m]
     0.140  Power law exponent
     0.030  Surface roughness length [m]


You have requested that the following file(s) be generated:

   17.9ms.bts (AeroDyn/TurbSim full-field wind file)


Turbulence Simulation Scaling Parameter Summary:

   Turbulence model used                            =  IEC Kaimal
   Turbulence characteristic                        =  C
   IEC turbulence type                              =  Normal Turbulence Model
   IEC standard                                     =  IEC 61400-3 Ed. 1: 2006
   Mean wind speed at hub height                    =   17.900 m/s
   Expected value of turbulence intensity at 15 m/s =   12.000%
   Characteristic value of standard deviation       =    2.283 m/s
   Turbulence scale                                 =   42.000 m
   u-component integral scale                       =  340.200 m
   Coherency scale                                  =  340.200 m
   Characteristic value of hub turbulence intensity =   12.754%
   Gradient Richardson number                       =    0.000

   Wind profile type                                =  Power law on rotor disk, logarithmic elsewhere
   Power law exponent                               =    0.140
   Mean shear across rotor disk                     =    0.028 (m/s)/m
   Assumed rotor diameter                           =  200.000 m
   Surface roughness length                         =    0.030 m

   Number of time steps in the FFT                  =   108300
   Number of time steps output                      =   108224


Mean Flow Angles:

   Vertical   =   0.0 degrees
   Horizontal =   0.0 degrees

Mean Wind Speed Profile:

   Height    Wind Speed   Horizontal Angle  U-comp (X)   V-comp (Y)   W-comp (Z)
     (m)        (m/s)         (degrees)       (m/s)        (m/s)        (m/s)   
   ------    ----------   ----------------  ----------   ----------   ----------
    219.0       19.50            0.00         19.50         0.00         0.00
    212.8       19.42            0.00         19.42         0.00         0.00
    206.5       19.34            0.00         19.34         0.00         0.00
    200.2       19.25            0.00         19.25         0.00         0.00
    194.0       19.17            0.00         19.17         0.00         0.00
    187.8       19.08            0.00         19.08         0.00         0.00
    181.5       18.99            0.00         18.99         0.00         0.00
    175.2       18.90            0.00         18.90         0.00         0.00
    169.0       18.80            0.00         18.80         0.00         0.00
    162.8       18.70            0.00         18.70         0.00         0.00
    156.5       18.60            0.00         18.60         0.00         0.00
    150.2       18.49            0.00         18.49         0.00         0.00
    144.0       18.38            0.00         18.38         0.00         0.00
    137.8       18.27            0.00         18.27         0.00         0.00
    131.5       18.15            0.00         18.15         0.00         0.00
    125.2       18.03            0.00         18.03         0.00         0.00
    119.0       17.90            0.00         17.90         0.00         0.00
    112.8       17.77            0.00         17.77         0.00         0.00
    106.5       17.62            0.00         17.62         0.00         0.00
    100.2       17.48            0.00         17.48         0.00         0.00
     94.0       17.32            0.00         17.32         0.00         0.00
     87.8       17.15            0.00         17.15         0.00         0.00
     81.5       16.98            0.00         16.98         0.00         0.00
     75.2       16.79            0.00         16.79         0.00         0.00
     69.0       16.58            0.00         16.58         0.00         0.00
     62.8       16.37            0.00         16.37         0.00         0.00
     56.5       16.13            0.00         16.13         0.00         0.00
     50.2       15.86            0.00         15.86         0.00         0.00
     44.0       15.57            0.00         15.57         0.00         0.00
     37.8       15.24            0.00         15.24         0.00         0.00
     31.5       14.86            0.00         14.86         0.00         0.00
     25.2       14.41            0.00         14.41         0.00         0.00
     19.0       13.85            0.00         13.85         0.00         0.00


Harvested Random Seeds after Generation of the Random Numbers:

   1645377696 Harvested seed # 1
   1442404792 Harvested seed # 2


Scaling statistics from the hub grid point:

  Component  Target Sigma (m/s)  Simulated Sigma (m/s)  Scaling Factor
  ---------  ------------------  ---------------------  --------------
     u'             2.283                2.324                0.982
     v'             1.826                1.807                1.011
     w'             1.141                1.113                1.025


Hub-Height Simulated Turbulence Statistical Summary:

   Type of Wind        Min (m/s)   Mean (m/s)    Max (m/s)  Sigma (m/s)       TI (%)
   ----------------    ---------   ----------    ---------  -----------       ------
   Longitudinal (u)         9.52        17.90        28.60        2.283       12.754
   Lateral (v)             -9.16         0.00         6.79        1.826       10.203
   Vertical (w)            -4.94         0.00         4.57        1.141        6.377
   U component              9.52        17.90        28.60        2.283       12.754
   V component             -9.16         0.00         6.79        1.826       10.203
   W component             -4.94         0.00         4.57        1.141        6.377
   Horizontal (U&V)         9.68        17.99        28.70        2.275       12.645
   Total                    9.68        18.03        28.72        2.270       12.592

                       Min Reynolds     Mean Reynolds    Max Reynolds    Correlation
   Product             Stress (m/s)^2   Stress (m/s)^2   Stress (m/s)^2  Coefficient
   ----------------    --------------   --------------   --------------  -----------
   u'w'                    -28.387             0.004            23.549         0.002
   u'v'                    -44.562            -0.124            25.196        -0.030
   v'w'                    -19.196            -0.035            19.345        -0.017


   Friction Velocity (Ustar)  =      0.065 m/s
   Maximum Instantaneous TKE  =     61.835 (m/s)^2
   Maximum Instantaneous CTKE =     22.529 (m/s)^2


Grid Point Variance Summary:

   Y-coord -100.00  -93.75  -87.50  -81.25  -75.00  -68.75  -62.50  -56.25  -50.00  -43.75  -37.50  -31.25  -25.00  -18.75  -12.50   -6.25    0.00    6.25   12.50   18.75   25.00   31.25   37.50   43.75   50.00   56.25   62.50   68.75   75.00   81.25   87.50   93.75  100.00

   Height   Standard deviation at grid points for the u component:
   219.00    2.260   2.192   2.236   2.199   2.154   2.169   2.136   2.126   2.143   2.124   2.148   2.110   2.083   2.128   2.160   2.149   2.106   2.117   2.138   2.161   2.191   2.253   2.224   2.252   2.284   2.297   2.292   2.243   2.230   2.187   2.139   2.152   2.136
   212.75    2.237   2.200   2.194   2.174   2.169   2.161   2.177   2.181   2.180   2.178   2.157   2.156   2.125   2.151   2.147   2.140   2.117   2.122   2.163   2.217   2.253   2.257   2.298   2.275   2.298   2.258   2.243   2.204   2.167   2.194   2.199   2.151   2.155
   206.50    2.185   2.177   2.199   2.182   2.134   2.120   2.123   2.160   2.181   2.206   2.199   2.137   2.146   2.171   2.124   2.110   2.104   2.150   2.176   2.225   2.278   2.293   2.294   2.308   2.284   2.257   2.179   2.213   2.197   2.211   2.218   2.211   2.193
   200.25    2.189   2.158   2.198   2.212   2.152   2.121   2.170   2.186   2.176   2.215   2.173   2.162   2.151   2.160   2.132   2.120   2.140   2.153   2.203   2.268   2.307   2.294   2.290   2.311   2.309   2.267   2.210   2.175   2.204   2.224   2.248   2.235   2.190
   194.00    2.179   2.158   2.223   2.223   2.177   2.189   2.164   2.164   2.194   2.183   2.190   2.176   2.161   2.151   2.159   2.148   2.160   2.218   2.249   2.287   2.313   2.361   2.335   2.319   2.316   2.252   2.207   2.190   2.194   2.210   2.259   2.247   2.194
   187.75    2.230   2.217   2.228   2.239   2.207   2.204   2.199   2.208   2.215   2.238   2.219   2.192   2.188   2.165   2.155   2.138   2.204   2.227   2.257   2.318   2.345   2.350   2.347   2.324   2.318   2.289   2.221   2.258   2.222   2.223   2.259   2.212   2.203
   181.50    2.208   2.211   2.233   2.264   2.230   2.246   2.215   2.223   2.222   2.240   2.217   2.216   2.240   2.184   2.216   2.223   2.202   2.239   2.252   2.281   2.368   2.329   2.338   2.293   2.301   2.325   2.303   2.273   2.257   2.255   2.246   2.245   2.255
   175.25    2.216   2.245   2.273   2.274   2.248   2.241   2.248   2.228   2.218   2.234   2.190   2.209   2.209   2.202   2.232   2.205   2.237   2.265   2.263   2.345   2.332   2.324   2.349   2.358   2.288   2.294   2.302   2.276   2.282   2.306   2.319   2.315   2.291
   169.00    2.174   2.212   2.259   2.261   2.254   2.228   2.264   2.239   2.228   2.236   2.206   2.237   2.181   2.217   2.208   2.231   2.258   2.279   2.282   2.307   2.328   2.323   2.315   2.316   2.281   2.303   2.283   2.256   2.303   2.292   2.310   2.318   2.295
   162.75    2.186   2.188   2.234   2.215   2.218   2.233   2.200   2.210   2.184   2.170   2.164   2.199   2.203   2.193   2.195   2.245   2.223   2.279   2.320   2.301   2.305   2.293   2.312   2.291   2.286   2.293   2.278   2.262   2.296   2.263   2.311   2.335   2.286
   156.50    2.199   2.222   2.196   2.169   2.183   2.200   2.196   2.162   2.160   2.141   2.147   2.198   2.256   2.212   2.238   2.249   2.200   2.259   2.304   2.296   2.291   2.304   2.289   2.274   2.275   2.324   2.311   2.278   2.284   2.294   2.324   2.344   2.321
   150.25    2.246   2.216   2.197   2.200   2.162   2.140   2.196   2.193   2.136   2.178   2.182   2.206   2.201   2.212   2.247   2.266   2.244   2.251   2.266   2.241   2.268   2.295   2.255   2.270   2.296   2.316   2.287   2.303   2.298   2.332   2.366   2.316   2.302
   144.00    2.255   2.256   2.242   2.226   2.155   2.131   2.122   2.177   2.197   2.181   2.183   2.192   2.211   2.221   2.247   2.287   2.270   2.268   2.262   2.261   2.269   2.264   2.282   2.275   2.300   2.315   2.294   2.286   2.285   2.284   2.324   2.314   2.290
   137.75    2.220   2.234   2.225   2.165   2.128   2.098   2.103   2.116   2.135   2.166   2.201   2.187   2.209   2.219   2.264   2.322   2.311   2.276   2.256   2.251   2.265   2.282   2.297   2.242   2.272   2.294   2.252   2.294   2.326   2.310   2.331   2.351   2.330
   131.50    2.226   2.243   2.257   2.206   2.158   2.123   2.158   2.111   2.151   2.136   2.208   2.187   2.232   2.270   2.273   2.331   2.308   2.293   2.263   2.268   2.241   2.273   2.326   2.282   2.275   2.283   2.307   2.320   2.346   2.338   2.337   2.301   2.304
   125.25    2.287   2.241   2.208   2.240   2.177   2.193   2.172   2.202   2.214   2.239   2.229   2.253   2.269   2.276   2.278   2.306   2.322   2.314   2.259   2.260   2.278   2.285   2.302   2.310   2.324   2.314   2.334   2.367   2.363   2.364   2.320   2.323   2.274
   119.00    2.263   2.236   2.217   2.230   2.210   2.203   2.185   2.223   2.204   2.262   2.245   2.236   2.282   2.263   2.275   2.278   2.283   2.302   2.300   2.277   2.261   2.300   2.272   2.274   2.323   2.315   2.335   2.368   2.356   2.310   2.321   2.292   2.280
   112.75    2.229   2.239   2.217   2.201   2.217   2.201   2.189   2.204   2.232   2.260   2.272   2.282   2.266   2.260   2.281   2.281   2.279   2.301   2.252   2.269   2.296   2.282   2.217   2.241   2.277   2.275   2.252   2.305   2.321   2.298   2.281   2.254   2.264
   106.50    2.207   2.184   2.212   2.221   2.256   2.219   2.204   2.196   2.202   2.213   2.254   2.288   2.278   2.271   2.274   2.271   2.249   2.291   2.261   2.219   2.218   2.210   2.218   2.230   2.238   2.232   2.208   2.261   2.272   2.220   2.245   2.229   2.222
   100.25    2.188   2.173   2.167   2.182   2.229   2.215   2.183   2.226   2.199   2.219   2.232   2.253   2.308   2.275   2.265   2.259   2.248   2.247   2.262   2.209   2.209   2.188   2.209   2.224   2.206   2.202   2.232   2.229   2.211   2.178   2.187   2.210   2.224
    94.00    2.165   2.156   2.165   2.196   2.169   2.200   2.195   2.218   2.236   2.250   2.243   2.232   2.262   2.207   2.246   2.258   2.275   2.246   2.222   2.176   2.170   2.168   2.169   2.201   2.201   2.217   2.249   2.221   2.235   2.230   2.229   2.195   2.228
    87.75    2.156   2.156   2.153   2.194   2.260   2.253   2.235   2.241   2.237   2.210   2.194   2.210   2.208   2.229   2.229   2.248   2.184   2.196   2.214   2.171   2.211   2.184   2.129   2.136   2.125   2.198   2.270   2.250   2.223   2.272   2.260   2.257   2.198
    81.50    2.192   2.171   2.202   2.227   2.252   2.260   2.237   2.235   2.237   2.207   2.201   2.209   2.226   2.231   2.202   2.219   2.210   2.195   2.210   2.237   2.216   2.199   2.171   2.154   2.199   2.224   2.262   2.264   2.262   2.246   2.240   2.216   2.221
    75.25    2.209   2.203   2.247   2.287   2.257   2.263   2.253   2.212   2.179   2.184   2.164   2.173   2.210   2.210   2.234   2.190   2.222   2.208   2.231   2.218   2.230   2.216   2.193   2.220   2.200   2.181   2.219   2.238   2.268   2.234   2.227   2.198   2.168
    69.00    2.257   2.298   2.317   2.284   2.261   2.244   2.230   2.209   2.165   2.176   2.158   2.185   2.224   2.180   2.147   2.209   2.249   2.239   2.226   2.263   2.224   2.225   2.244   2.242   2.250   2.208   2.175   2.228   2.241   2.221   2.225   2.203   2.188
    62.75    2.249   2.320   2.329   2.313   2.246   2.217   2.239   2.220   2.187   2.156   2.169   2.210   2.231   2.219   2.185   2.175   2.187   2.223   2.257   2.248   2.231   2.229   2.251   2.242   2.233   2.231   2.205   2.239   2.227   2.231   2.206   2.195   2.184
    56.50    2.255   2.297   2.266   2.237   2.242   2.244   2.256   2.216   2.181   2.174   2.195   2.228   2.236   2.229   2.204   2.172   2.197   2.218   2.211   2.270   2.278   2.245   2.252   2.268   2.266   2.220   2.229   2.226   2.239   2.250   2.229   2.202   2.196
    50.25    2.202   2.247   2.248   2.208   2.239   2.193   2.210   2.216   2.186   2.155   2.178   2.209   2.248   2.221   2.216   2.199   2.215   2.253   2.214   2.254   2.215   2.270   2.287   2.270   2.270   2.287   2.262   2.216   2.232   2.233   2.231   2.190   2.232
    44.00    2.172   2.199   2.204   2.185   2.235   2.231   2.247   2.188   2.175   2.182   2.183   2.186   2.202   2.258   2.214   2.227   2.223   2.215   2.227   2.243   2.228   2.212   2.274   2.264   2.277   2.241   2.221   2.216   2.188   2.228   2.199   2.201   2.173
    37.75    2.171   2.151   2.198   2.201   2.230   2.265   2.239   2.209   2.153   2.165   2.208   2.197   2.181   2.187   2.202   2.248   2.194   2.191   2.225   2.203   2.220   2.226   2.232   2.231   2.225   2.231   2.234   2.177   2.210   2.188   2.195   2.187   2.204
    31.50    2.163   2.147   2.171   2.192   2.249   2.258   2.249   2.200   2.183   2.198   2.194   2.199   2.190   2.198   2.230   2.221   2.202   2.232   2.252   2.228   2.249   2.264   2.253   2.267   2.220   2.235   2.210   2.194   2.145   2.211   2.218   2.196   2.222
    25.25    2.225   2.205   2.195   2.173   2.156   2.203   2.208   2.187   2.142   2.181   2.208   2.142   2.165   2.178   2.235   2.256   2.235   2.268   2.253   2.273   2.248   2.260   2.260   2.257   2.240   2.207   2.229   2.172   2.146   2.163   2.240   2.220   2.244
    19.00    2.225   2.213   2.190   2.169   2.130   2.137   2.193   2.211   2.167   2.165   2.166   2.139   2.135   2.169   2.184   2.240   2.249   2.263   2.266   2.247   2.250   2.235   2.249   2.258   2.262   2.227   2.229   2.200   2.135   2.158   2.193   2.197   2.229

   Height   Standard deviation at grid points for the v component:
   219.00    1.826   1.826   1.826   1.826   1.826   1.826   1.826   1.826   1.826   1.826   1.826   1.826   1.826   1.826   1.826   1.826   1.826   1.826   1.826   1.826   1.826   1.826   1.826   1.826   1.826   1.826   1.826   1.826   1.826   1.826   1.826   1.826   1.826
   212.75    1.826   1.826   1.826   1.826   1.826   1.826   1.826   1.826   1.826   1.826   1.826   1.826   1.826   1.826   1.826   1.826   1.826   1.826   1.826   1.826   1.826   1.826   1.826   1.826   1.826   1.826   1.826   1.826   1.826   1.826   1.826   1.826   1.826
   206.50    1.826   1.826   1.826   1.826   1.826   1.826   1.826   1.826   1.826   1.826   1.826   1.826   1.826   1.826   1.826   1.826   1.826   1.826   1.826   1.826   1.826   1.826   1.826   1.826   1.826   1.826   1.826   1.826   1.826   1.826   1.826   1.826   1.826
   200.25    1.826   1.826   1.826   1.826   1.826   1.826   1.826   1.826   1.826   1.826   1.826   1.826   1.826   1.826   1.826   1.826   1.826   1.826   1.826   1.826   1.826   1.826   1.826   1.826   1.826   1.826   1.826   1.826   1.826   1.826   1.826   1.826   1.826
   194.00    1.826   1.826   1.826   1.826   1.826   1.826   1.826   1.826   1.826   1.826   1.826   1.826   1.826   1.826   1.826   1.826   1.826   1.826   1.826   1.826   1.826   1.826   1.826   1.826   1.826   1.826   1.826   1.826   1.826   1.826   1.826   1.826   1.826
   187.75    1.826   1.826   1.826   1.826   1.826   1.826   1.826   1.826   1.826   1.826   1.826   1.826   1.826   1.826   1.826   1.826   1.826   1.826   1.826   1.826   1.826   1.826   1.826   1.826   1.826   1.826   1.826   1.826   1.826   1.826   1.826   1.826   1.826
   181.50    1.826   1.826   1.826   1.826   1.826   1.826   1.826   1.826   1.826   1.826   1.826   1.826   1.826   1.826   1.826   1.826   1.826   1.826   1.826   1.826   1.826   1.826   1.826   1.826   1.826   1.826   1.826   1.826   1.826   1.826   1.826   1.826   1.826
   175.25    1.826   1.826   1.826   1.826   1.826   1.826   1.826   1.826   1.826   1.826   1.826   1.826   1.826   1.826   1.826   1.826   1.826   1.826   1.826   1.826   1.826   1.826   1.826   1.826   1.826   1.826   1.826   1.826   1.826   1.826   1.826   1.826   1.826
   169.00    1.826   1.826   1.826   1.826   1.826   1.826   1.826   1.826   1.826   1.826   1.826   1.826   1.826   1.826   1.826   1.826   1.826   1.826   1.826   1.826   1.826   1.826   1.826   1.826   1.826   1.826   1.826   1.826   1.826   1.826   1.826   1.826   1.826
   162.75    1.826   1.826   1.826   1.826   1.826   1.826   1.826   1.826   1.826   1.826   1.826   1.826   1.826   1.826   1.826   1.826   1.826   1.826   1.826   1.826   1.826   1.826   1.826   1.826   1.826   1.826   1.826   1.826   1.826   1.826   1.826   1.826   1.826
   156.50    1.826   1.826   1.826   1.826   1.826   1.826   1.826   1.826   1.826   1.826   1.826   1.826   1.826   1.826   1.826   1.826   1.826   1.826   1.826   1.826   1.826   1.826   1.826   1.826   1.826   1.826   1.826   1.826   1.826   1.826   1.826   1.826   1.826
   150.25    1.826   1.826   1.826   1.826   1.826   1.826   1.826   1.826   1.826   1.826   1.826   1.826   1.826   1.826   1.826   1.826   1.826   1.826   1.826   1.826   1.826   1.826   1.826   1.826   1.826   1.826   1.826   1.826   1.826   1.826   1.826   1.826   1.826
   144.00    1.826   1.826   1.826   1.826   1.826   1.826   1.826   1.826   1.826   1.826   1.826   1.826   1.826   1.826   1.826   1.826   1.826   1.826   1.826   1.826   1.826   1.826   1.826   1.826   1.826   1.826   1.826   1.826   1.826   1.826   1.826   1.826   1.826
   137.75    1.826   1.826   1.826   1.826   1.826   1.826   1.826   1.826   1.826   1.826   1.826   1.826   1.826   1.826   1.826   1.826   1.826   1.826   1.826   1.826   1.826   1.826   1.826   1.826   1.826   1.826   1.826   1.826   1.826   1.826   1.826   1.826   1.826
   131.50    1.826   1.826   1.826   1.826   1.826   1.826   1.826   1.826   1.826   1.826   1.826   1.826   1.826   1.826   1.826   1.826   1.826   1.826   1.826   1.826   1.826   1.826   1.826   1.826   1.826   1.826   1.826   1.826   1.826   1.826   1.826   1.826   1.826
   125.25    1.826   1.826   1.826   1.826   1.826   1.826   1.826   1.826   1.826   1.826   1.826   1.826   1.826   1.826   1.826   1.826   1.826   1.826   1.826   1.826   1.826   1.826   1.826   1.826   1.826   1.826   1.826   1.826   1.826   1.826   1.826   1.826   1.826
   119.00    1.826   1.826   1.826   1.826   1.826   1.826   1.826   1.826   1.826   1.826   1.826   1.826   1.826   1.826   1.826   1.826   1.826   1.826   1.826   1.826   1.826   1.826   1.826   1.826   1.826   1.826   1.826   1.826   1.826   1.826   1.826   1.826   1.826
   112.75    1.826   1.826   1.826   1.826   1.826   1.826   1.826   1.826   1.826   1.826   1.826   1.826   1.826   1.826   1.826   1.826   1.826   1.826   1.826   1.826   1.826   1.826   1.826   1.826   1.826   1.826   1.826   1.826   1.826   1.826   1.826   1.826   1.826
   106.50    1.826   1.826   1.826   1.826   1.826   1.826   1.826   1.826   1.826   1.826   1.826   1.826   1.826   1.826   1.826   1.826   1.826   1.826   1.826   1.826   1.826   1.826   1.826   1.826   1.826   1.826   1.826   1.826   1.826   1.826   1.826   1.826   1.826
   100.25    1.826   1.826   1.826   1.826   1.826   1.826   1.826   1.826   1.826   1.826   1.826   1.826   1.826   1.826   1.826   1.826   1.826   1.826   1.826   1.826   1.826   1.826   1.826   1.826   1.826   1.826   1.826   1.826   1.826   1.826   1.826   1.826   1.826
    94.00    1.826   1.826   1.826   1.826   1.826   1.826   1.826   1.826   1.826   1.826   1.826   1.826   1.826   1.826   1.826   1.826   1.826   1.826   1.826   1.826   1.826   1.826   1.826   1.826   1.826   1.826   1.826   1.826   1.826   1.826   1.826   1.826   1.826
    87.75    1.826   1.826   1.826   1.826   1.826   1.826   1.826   1.826   1.826   1.826   1.826   1.826   1.826   1.826   1.826   1.826   1.826   1.826   1.826   1.826   1.826   1.826   1.826   1.826   1.826   1.826   1.826   1.826   1.826   1.826   1.826   1.826   1.826
    81.50    1.826   1.826   1.826   1.826   1.826   1.826   1.826   1.826   1.826   1.826   1.826   1.826   1.826   1.826   1.826   1.826   1.826   1.826   1.826   1.826   1.826   1.826   1.826   1.826   1.826   1.826   1.826   1.826   1.826   1.826   1.826   1.826   1.826
    75.25    1.826   1.826   1.826   1.826   1.826   1.826   1.826   1.826   1.826   1.826   1.826   1.826   1.826   1.826   1.826   1.826   1.826   1.826   1.826   1.826   1.826   1.826   1.826   1.826   1.826   1.826   1.826   1.826   1.826   1.826   1.826   1.826   1.826
    69.00    1.826   1.826   1.826   1.826   1.826   1.826   1.826   1.826   1.826   1.826   1.826   1.826   1.826   1.826   1.826   1.826   1.826   1.826   1.826   1.826   1.826   1.826   1.826   1.826   1.826   1.826   1.826   1.826   1.826   1.826   1.826   1.826   1.826
    62.75    1.826   1.826   1.826   1.826   1.826   1.826   1.826   1.826   1.826   1.826   1.826   1.826   1.826   1.826   1.826   1.826   1.826   1.826   1.826   1.826   1.826   1.826   1.826   1.826   1.826   1.826   1.826   1.826   1.826   1.826   1.826   1.826   1.826
    56.50    1.826   1.826   1.826   1.826   1.826   1.826   1.826   1.826   1.826   1.826   1.826   1.826   1.826   1.826   1.826   1.826   1.826   1.826   1.826   1.826   1.826   1.826   1.826   1.826   1.826   1.826   1.826   1.826   1.826   1.826   1.826   1.826   1.826
    50.25    1.826   1.826   1.826   1.826   1.826   1.826   1.826   1.826   1.826   1.826   1.826   1.826   1.826   1.826   1.826   1.826   1.826   1.826   1.826   1.826   1.826   1.826   1.826   1.826   1.826   1.826   1.826   1.826   1.826   1.826   1.826   1.826   1.826
    44.00    1.826   1.826   1.826   1.826   1.826   1.826   1.826   1.826   1.826   1.826   1.826   1.826   1.826   1.826   1.826   1.826   1.826   1.826   1.826   1.826   1.826   1.826   1.826   1.826   1.826   1.826   1.826   1.826   1.826   1.826   1.826   1.826   1.826
    37.75    1.826   1.826   1.826   1.826   1.826   1.826   1.826   1.826   1.826   1.826   1.826   1.826   1.826   1.826   1.826   1.826   1.826   1.826   1.826   1.826   1.826   1.826   1.826   1.826   1.826   1.826   1.826   1.826   1.826   1.826   1.826   1.826   1.826
    31.50    1.826   1.826   1.826   1.826   1.826   1.826   1.826   1.826   1.826   1.826   1.826   1.826   1.826   1.826   1.826   1.826   1.826   1.826   1.826   1.826   1.826   1.826   1.826   1.826   1.826   1.826   1.826   1.826   1.826   1.826   1.826   1.826   1.826
    25.25    1.826   1.826   1.826   1.826   1.826   1.826   1.826   1.826   1.826   1.826   1.826   1.826   1.826   1.826   1.826   1.826   1.826   1.826   1.826   1.826   1.826   1.826   1.826   1.826   1.826   1.826   1.826   1.826   1.826   1.826   1.826   1.826   1.826
    19.00    1.826   1.826   1.826   1.826   1.826   1.826   1.826   1.826   1.826   1.826   1.826   1.826   1.826   1.826   1.826   1.826   1.826   1.826   1.826   1.826   1.826   1.826   1.826   1.826   1.826   1.826   1.826   1.826   1.826   1.826   1.826   1.826   1.826

   Height   Standard deviation at grid points for the w component:
   219.00    1.141   1.141   1.141   1.142   1.141   1.141   1.141   1.141   1.141   1.141   1.141   1.141   1.141   1.141   1.141   1.141   1.141   1.141   1.141   1.141   1.141   1.141   1.141   1.141   1.141   1.141   1.141   1.141   1.142   1.141   1.141   1.141   1.141
   212.75    1.141   1.141   1.142   1.141   1.141   1.141   1.141   1.141   1.141   1.141   1.141   1.141   1.141   1.141   1.142   1.141   1.142   1.141   1.141   1.141   1.141   1.141   1.141   1.141   1.141   1.141   1.141   1.141   1.142   1.141   1.141   1.141   1.142
   206.50    1.141   1.141   1.141   1.141   1.141   1.141   1.141   1.141   1.141   1.141   1.141   1.141   1.141   1.141   1.141   1.141   1.141   1.141   1.141   1.141   1.141   1.141   1.141   1.141   1.141   1.141   1.141   1.141   1.141   1.141   1.141   1.141   1.141
   200.25    1.141   1.141   1.141   1.141   1.141   1.142   1.141   1.141   1.141   1.141   1.141   1.141   1.141   1.141   1.142   1.141   1.141   1.141   1.141   1.141   1.141   1.141   1.141   1.141   1.141   1.141   1.141   1.141   1.141   1.141   1.141   1.141   1.141
   194.00    1.141   1.141   1.141   1.141   1.141   1.141   1.141   1.142   1.141   1.141   1.141   1.142   1.141   1.141   1.141   1.142   1.141   1.141   1.141   1.141   1.141   1.141   1.141   1.141   1.141   1.141   1.141   1.141   1.141   1.141   1.141   1.141   1.141
   187.75    1.141   1.141   1.141   1.141   1.141   1.141   1.141   1.141   1.141   1.141   1.141   1.141   1.141   1.141   1.142   1.141   1.141   1.141   1.141   1.141   1.142   1.141   1.141   1.141   1.141   1.141   1.141   1.141   1.141   1.141   1.141   1.141   1.141
   181.50    1.141   1.141   1.142   1.141   1.141   1.141   1.141   1.141   1.141   1.141   1.141   1.141   1.141   1.141   1.141   1.142   1.141   1.141   1.141   1.141   1.141   1.141   1.141   1.141   1.141   1.141   1.141   1.141   1.141   1.141   1.141   1.141   1.141
   175.25    1.141   1.141   1.141   1.141   1.141   1.142   1.141   1.141   1.141   1.141   1.141   1.141   1.142   1.141   1.141   1.141   1.141   1.141   1.141   1.141   1.141   1.141   1.141   1.141   1.141   1.141   1.141   1.141   1.141   1.141   1.141   1.141   1.141
   169.00    1.141   1.141   1.141   1.141   1.141   1.141   1.141   1.141   1.141   1.141   1.141   1.141   1.141   1.142   1.141   1.141   1.141   1.141   1.141   1.141   1.141   1.141   1.141   1.142   1.141   1.141   1.141   1.141   1.142   1.141   1.141   1.141   1.141
   162.75    1.141   1.142   1.141   1.141   1.141   1.141   1.141   1.141   1.141   1.141   1.141   1.141   1.141   1.141   1.141   1.141   1.141   1.141   1.141   1.141   1.141   1.141   1.142   1.141   1.141   1.141   1.141   1.141   1.141   1.142   1.141   1.141   1.141
   156.50    1.141   1.141   1.141   1.141   1.142   1.141   1.141   1.141   1.141   1.141   1.141   1.141   1.141   1.141   1.141   1.141   1.141   1.141   1.141   1.142   1.141   1.141   1.141   1.141   1.141   1.141   1.141   1.141   1.141   1.141   1.141   1.141   1.141
   150.25    1.141   1.141   1.141   1.141   1.141   1.141   1.141   1.141   1.141   1.141   1.141   1.141   1.141   1.141   1.141   1.141   1.141   1.142   1.141   1.141   1.141   1.142   1.141   1.141   1.141   1.141   1.141   1.141   1.141   1.141   1.141   1.141   1.142
   144.00    1.141   1.141   1.141   1.141   1.141   1.141   1.141   1.141   1.141   1.141   1.141   1.141   1.141   1.141   1.141   1.141   1.141   1.141   1.141   1.141   1.141   1.141   1.141   1.142   1.141   1.141   1.141   1.141   1.141   1.141   1.141   1.141   1.141
   137.75    1.141   1.141   1.141   1.141   1.141   1.141   1.141   1.141   1.141   1.141   1.141   1.141   1.141   1.141   1.141   1.141   1.141   1.141   1.141   1.141   1.141   1.141   1.141   1.141   1.141   1.141   1.141   1.141   1.141   1.141   1.141   1.141   1.141
   131.50    1.141   1.141   1.141   1.142   1.141   1.141   1.141   1.141   1.141   1.141   1.141   1.141   1.141   1.141   1.141   1.141   1.141   1.141   1.141   1.141   1.141   1.141   1.141   1.141   1.141   1.141   1.141   1.141   1.141   1.141   1.141   1.141   1.141
   125.25    1.141   1.141   1.141   1.141   1.141   1.141   1.141   1.141   1.141   1.141   1.141   1.141   1.141   1.141   1.141   1.141   1.141   1.141   1.141   1.141   1.141   1.141   1.141   1.141   1.141   1.141   1.141   1.141   1.141   1.141   1.141   1.141   1.141
   119.00    1.141   1.141   1.141   1.141   1.141   1.141   1.141   1.141   1.141   1.141   1.141   1.141   1.141   1.141   1.141   1.141   1.141   1.141   1.141   1.141   1.141   1.141   1.141   1.141   1.141   1.141   1.141   1.141   1.141   1.141   1.141   1.141   1.141
   112.75    1.141   1.141   1.141   1.141   1.141   1.141   1.141   1.141   1.141   1.141   1.141   1.141   1.141   1.141   1.141   1.141   1.141   1.142   1.141   1.141   1.141   1.141   1.141   1.141   1.141   1.142   1.141   1.141   1.141   1.141   1.141   1.141   1.141
   106.50    1.142   1.141   1.141   1.141   1.141   1.141   1.141   1.141   1.141   1.141   1.141   1.141   1.141   1.141   1.141   1.141   1.141   1.141   1.141   1.141   1.141   1.141   1.141   1.141   1.141   1.141   1.141   1.141   1.141   1.141   1.141   1.141   1.141
   100.25    1.141   1.141   1.141   1.141   1.141   1.141   1.141   1.141   1.141   1.141   1.141   1.141   1.141   1.141   1.141   1.141   1.141   1.141   1.141   1.142   1.141   1.141   1.141   1.141   1.141   1.141   1.141   1.141   1.141   1.141   1.141   1.141   1.141
    94.00    1.141   1.141   1.141   1.141   1.141   1.141   1.141   1.141   1.141   1.141   1.141   1.141   1.141   1.141   1.141   1.141   1.141   1.141   1.141   1.141   1.141   1.141   1.141   1.141   1.141   1.141   1.141   1.141   1.141   1.141   1.141   1.141   1.141
    87.75    1.141   1.141   1.141   1.141   1.141   1.141   1.141   1.141   1.141   1.141   1.141   1.141   1.141   1.141   1.141   1.141   1.141   1.141   1.141   1.141   1.142   1.141   1.141   1.141   1.141   1.141   1.141   1.141   1.141   1.141   1.141   1.141   1.141
    81.50    1.141   1.141   1.141   1.142   1.141   1.141   1.141   1.141   1.142   1.142   1.141   1.141   1.141   1.141   1.141   1.141   1.141   1.141   1.141   1.141   1.141   1.141   1.141   1.141   1.141   1.141   1.142   1.141   1.141   1.141   1.141   1.141   1.141
    75.25    1.141   1.141   1.142   1.142   1.141   1.141   1.141   1.141   1.141   1.141   1.141   1.141   1.141   1.141   1.141   1.141   1.141   1.141   1.141   1.141   1.142   1.141   1.141   1.141   1.141   1.141   1.141   1.141   1.141   1.141   1.141   1.141   1.141
    69.00    1.141   1.141   1.141   1.141   1.141   1.141   1.141   1.141   1.141   1.141   1.141   1.141   1.141   1.141   1.141   1.141   1.141   1.141   1.141   1.141   1.141   1.142   1.141   1.141   1.141   1.141   1.141   1.141   1.141   1.141   1.141   1.141   1.141
    62.75    1.141   1.141   1.141   1.141   1.141   1.142   1.141   1.141   1.141   1.141   1.141   1.141   1.141   1.141   1.141   1.141   1.141   1.141   1.141   1.141   1.141   1.141   1.141   1.141   1.141   1.141   1.141   1.141   1.141   1.141   1.141   1.141   1.141
    56.50    1.141   1.141   1.141   1.141   1.141   1.141   1.141   1.141   1.141   1.141   1.141   1.141   1.141   1.141   1.141   1.141   1.141   1.141   1.141   1.141   1.141   1.141   1.142   1.141   1.141   1.141   1.141   1.141   1.141   1.141   1.141   1.141   1.141
    50.25    1.141   1.141   1.141   1.141   1.141   1.141   1.141   1.141   1.141   1.141   1.141   1.142   1.141   1.141   1.141   1.141   1.141   1.141   1.141   1.141   1.141   1.141   1.141   1.141   1.142   1.141   1.141   1.141   1.141   1.141   1.141   1.141   1.141
    44.00    1.141   1.141   1.141   1.141   1.141   1.141   1.141   1.141   1.141   1.141   1.141   1.141   1.141   1.141   1.141   1.141   1.141   1.141   1.141   1.141   1.141   1.141   1.142   1.141   1.141   1.141   1.141   1.141   1.141   1.141   1.141   1.141   1.141
    37.75    1.141   1.141   1.141   1.141   1.141   1.141   1.141   1.141   1.142   1.141   1.141   1.141   1.141   1.141   1.141   1.141   1.141   1.141   1.141   1.141   1.141   1.141   1.141   1.141   1.141   1.141   1.141   1.141   1.142   1.141   1.141   1.141   1.141
    31.50    1.141   1.141   1.141   1.141   1.141   1.141   1.141   1.141   1.141   1.141   1.141   1.141   1.141   1.141   1.141   1.141   1.141   1.141   1.141   1.142   1.141   1.141   1.141   1.141   1.141   1.141   1.141   1.141   1.141   1.141   1.141   1.141   1.141
    25.25    1.141   1.141   1.141   1.141   1.141   1.141   1.141   1.141   1.141   1.141   1.141   1.142   1.141   1.141   1.141   1.141   1.141   1.141   1.141   1.141   1.141   1.141   1.141   1.141   1.141   1.141   1.141   1.141   1.141   1.141   1.141   1.141   1.141
    19.00    1.141   1.142   1.141   1.141   1.141   1.141   1.141   1.141   1.141   1.141   1.141   1.141   1.141   1.141   1.141   1.142   1.141   1.141   1.141   1.141   1.141   1.141   1.141   1.141   1.141   1.141   1.141   1.141   1.141   1.141   1.141   1.141   1.141

   Mean standard deviation across all grid points:
      u component:    2.229 m/s
      v component:    1.826 m/s
      w component:    1.141 m/s


U-component (X) statistics from the hub grid point:

   Mean =  17.9000 m/s
   TI   =  12.7542 %

Nyquist frequency of turbulent wind field =        10.000 Hz


Processing complete.  3418.4 CPU seconds used.
