
This summary file was generated by TurbSim (v1.06.00, 21-Sep-2012) on 20-Sep-2017 at 17:58:37.


Runtime Options:

    123456  Random seed #1
    789012  Random seed #2
         F  Output binary HH turbulence parameters?
         F  Output formatted turbulence parameters?
         F  Output AeroDyn HH files?
         T  Output AeroDyn FF files?
         F  Output BLADED FF files?
         F  Output tower data?
         F  Output formatted FF files?
         F  Output coherent turbulence time step file?
         T  Clockwise rotation when looking downwind?
 1 -   HUB  IEC turbulence models scaled to exact specified standard deviation


Turbine/Model Specifications:

        33  Vertical grid-point matrix dimension
        33  Horizontal grid-point matrix dimension
     0.050  Time step [seconds]
  5400.000  Analysis time [seconds]
  5400.000  Usable output time [seconds]
   119.000  Hub height [m]
   200.000  Grid height [m]
   200.000  Grid width [m]
     0.000  Vertical flow angle [degrees]
     0.000  Horizontal flow angle [degrees]


Meteorological Boundary Conditions:

    IECKAI  IEC Kaimal spectral model
         3  IEC standard: IEC 61400-3 Ed. 1: 2006
         C  IEC turbulence characteristic
       NTM  IEC Normal Turbulence Model
       N/A  IEC Extreme Turbulence Model (ETM) "c" parameter [m/s]
       IEC  Wind profile type
   119.000  Reference height [m]
    22.100  Reference wind speed [m/s]
       N/A  Jet height [m]
     0.140  Power law exponent
     0.030  Surface roughness length [m]


You have requested that the following file(s) be generated:

   22.1ms.bts (AeroDyn/TurbSim full-field wind file)


Turbulence Simulation Scaling Parameter Summary:

   Turbulence model used                            =  IEC Kaimal
   Turbulence characteristic                        =  C
   IEC turbulence type                              =  Normal Turbulence Model
   IEC standard                                     =  IEC 61400-3 Ed. 1: 2006
   Mean wind speed at hub height                    =   22.100 m/s
   Expected value of turbulence intensity at 15 m/s =   12.000%
   Characteristic value of standard deviation       =    2.661 m/s
   Turbulence scale                                 =   42.000 m
   u-component integral scale                       =  340.200 m
   Coherency scale                                  =  340.200 m
   Characteristic value of hub turbulence intensity =   12.041%
   Gradient Richardson number                       =    0.000

   Wind profile type                                =  Power law on rotor disk, logarithmic elsewhere
   Power law exponent                               =    0.140
   Mean shear across rotor disk                     =    0.035 (m/s)/m
   Assumed rotor diameter                           =  200.000 m
   Surface roughness length                         =    0.030 m

   Number of time steps in the FFT                  =   108192
   Number of time steps output                      =   108181


Mean Flow Angles:

   Vertical   =   0.0 degrees
   Horizontal =   0.0 degrees

Mean Wind Speed Profile:

   Height    Wind Speed   Horizontal Angle  U-comp (X)   V-comp (Y)   W-comp (Z)
     (m)        (m/s)         (degrees)       (m/s)        (m/s)        (m/s)   
   ------    ----------   ----------------  ----------   ----------   ----------
    219.0       24.07            0.00         24.07         0.00         0.00
    212.8       23.97            0.00         23.97         0.00         0.00
    206.5       23.87            0.00         23.87         0.00         0.00
    200.2       23.77            0.00         23.77         0.00         0.00
    194.0       23.67            0.00         23.67         0.00         0.00
    187.8       23.56            0.00         23.56         0.00         0.00
    181.5       23.45            0.00         23.45         0.00         0.00
    175.2       23.33            0.00         23.33         0.00         0.00
    169.0       23.21            0.00         23.21         0.00         0.00
    162.8       23.09            0.00         23.09         0.00         0.00
    156.5       22.96            0.00         22.96         0.00         0.00
    150.2       22.83            0.00         22.83         0.00         0.00
    144.0       22.70            0.00         22.70         0.00         0.00
    137.8       22.56            0.00         22.56         0.00         0.00
    131.5       22.41            0.00         22.41         0.00         0.00
    125.2       22.26            0.00         22.26         0.00         0.00
    119.0       22.10            0.00         22.10         0.00         0.00
    112.8       21.93            0.00         21.93         0.00         0.00
    106.5       21.76            0.00         21.76         0.00         0.00
    100.2       21.58            0.00         21.58         0.00         0.00
     94.0       21.38            0.00         21.38         0.00         0.00
     87.8       21.18            0.00         21.18         0.00         0.00
     81.5       20.96            0.00         20.96         0.00         0.00
     75.2       20.73            0.00         20.73         0.00         0.00
     69.0       20.48            0.00         20.48         0.00         0.00
     62.8       20.21            0.00         20.21         0.00         0.00
     56.5       19.91            0.00         19.91         0.00         0.00
     50.2       19.59            0.00         19.59         0.00         0.00
     44.0       19.23            0.00         19.23         0.00         0.00
     37.8       18.82            0.00         18.82         0.00         0.00
     31.5       18.35            0.00         18.35         0.00         0.00
     25.2       17.79            0.00         17.79         0.00         0.00
     19.0       17.09            0.00         17.09         0.00         0.00


Harvested Random Seeds after Generation of the Random Numbers:

   2021154910 Harvested seed # 1
    825354924 Harvested seed # 2


Scaling statistics from the hub grid point:

  Component  Target Sigma (m/s)  Simulated Sigma (m/s)  Scaling Factor
  ---------  ------------------  ---------------------  --------------
     u'             2.661                2.700                0.986
     v'             2.129                2.103                1.012
     w'             1.331                1.293                1.029


Hub-Height Simulated Turbulence Statistical Summary:

   Type of Wind        Min (m/s)   Mean (m/s)    Max (m/s)  Sigma (m/s)       TI (%)
   ----------------    ---------   ----------    ---------  -----------       ------
   Longitudinal (u)        11.66        22.10        32.25        2.661       12.041
   Lateral (v)             -8.51         0.00         8.60        2.129        9.633
   Vertical (w)            -5.23         0.00         5.86        1.331        6.020
   U component             11.66        22.10        32.25        2.661       12.041
   V component             -8.51         0.00         8.60        2.129        9.633
   W component             -5.23         0.00         5.86        1.331        6.020
   Horizontal (U&V)        11.68        22.20        32.26        2.654       11.951
   Total                   11.68        22.24        32.26        2.650       11.914

                       Min Reynolds     Mean Reynolds    Max Reynolds    Correlation
   Product             Stress (m/s)^2   Stress (m/s)^2   Stress (m/s)^2  Coefficient
   ----------------    --------------   --------------   --------------  -----------
   u'w'                    -30.302             0.073            39.204         0.021
   u'v'                    -41.597            -0.087            42.552        -0.015
   v'w'                    -24.135             0.039            30.818         0.014


   Friction Velocity (Ustar)  =      0.271 m/s
   Maximum Instantaneous TKE  =     62.062 (m/s)^2
   Maximum Instantaneous CTKE =     24.030 (m/s)^2


Grid Point Variance Summary:

   Y-coord -100.00  -93.75  -87.50  -81.25  -75.00  -68.75  -62.50  -56.25  -50.00  -43.75  -37.50  -31.25  -25.00  -18.75  -12.50   -6.25    0.00    6.25   12.50   18.75   25.00   31.25   37.50   43.75   50.00   56.25   62.50   68.75   75.00   81.25   87.50   93.75  100.00

   Height   Standard deviation at grid points for the u component:
   219.00    2.571   2.617   2.621   2.620   2.620   2.630   2.630   2.638   2.639   2.657   2.686   2.648   2.648   2.634   2.696   2.673   2.643   2.624   2.640   2.635   2.684   2.709   2.723   2.667   2.663   2.672   2.686   2.727   2.696   2.656   2.637   2.649   2.629
   212.75    2.603   2.613   2.633   2.628   2.643   2.638   2.640   2.666   2.668   2.645   2.647   2.630   2.645   2.650   2.631   2.630   2.647   2.670   2.691   2.689   2.692   2.692   2.672   2.685   2.674   2.678   2.672   2.683   2.674   2.646   2.583   2.626   2.617
   206.50    2.580   2.638   2.611   2.630   2.646   2.667   2.666   2.627   2.631   2.630   2.640   2.613   2.601   2.653   2.629   2.657   2.641   2.658   2.682   2.679   2.658   2.676   2.673   2.685   2.660   2.631   2.640   2.653   2.665   2.646   2.620   2.603   2.638
   200.25    2.574   2.599   2.586   2.615   2.643   2.662   2.654   2.670   2.654   2.637   2.648   2.614   2.600   2.621   2.662   2.686   2.656   2.671   2.642   2.675   2.673   2.631   2.629   2.673   2.638   2.594   2.548   2.617   2.647   2.613   2.604   2.604   2.627
   194.00    2.553   2.578   2.572   2.606   2.631   2.698   2.670   2.671   2.668   2.638   2.652   2.614   2.613   2.620   2.669   2.671   2.684   2.669   2.659   2.684   2.659   2.654   2.619   2.619   2.596   2.586   2.553   2.557   2.564   2.571   2.585   2.611   2.603
   187.75    2.598   2.573   2.579   2.630   2.618   2.676   2.674   2.666   2.667   2.640   2.637   2.621   2.629   2.647   2.694   2.647   2.625   2.645   2.658   2.648   2.626   2.650   2.602   2.623   2.589   2.598   2.559   2.589   2.538   2.595   2.579   2.607   2.619
   181.50    2.575   2.644   2.622   2.654   2.654   2.671   2.684   2.652   2.654   2.677   2.675   2.633   2.632   2.580   2.666   2.633   2.647   2.634   2.625   2.586   2.619   2.644   2.610   2.598   2.608   2.599   2.589   2.623   2.603   2.563   2.549   2.587   2.639
   175.25    2.630   2.654   2.653   2.649   2.634   2.644   2.641   2.680   2.678   2.683   2.674   2.678   2.640   2.643   2.649   2.635   2.629   2.615   2.618   2.626   2.580   2.574   2.596   2.547   2.617   2.589   2.602   2.593   2.571   2.601   2.600   2.616   2.662
   169.00    2.630   2.649   2.640   2.645   2.614   2.595   2.639   2.687   2.664   2.676   2.666   2.667   2.652   2.679   2.658   2.655   2.628   2.637   2.618   2.596   2.550   2.569   2.574   2.576   2.602   2.587   2.633   2.628   2.581   2.604   2.607   2.628   2.627
   162.75    2.659   2.619   2.635   2.640   2.625   2.633   2.671   2.680   2.671   2.673   2.673   2.674   2.707   2.647   2.652   2.620   2.624   2.629   2.612   2.587   2.564   2.564   2.586   2.572   2.581   2.575   2.622   2.593   2.601   2.616   2.587   2.569   2.579
   156.50    2.632   2.626   2.664   2.644   2.621   2.657   2.677   2.665   2.644   2.675   2.680   2.677   2.646   2.667   2.664   2.679   2.618   2.576   2.603   2.601   2.655   2.605   2.542   2.552   2.583   2.622   2.637   2.648   2.592   2.582   2.612   2.580   2.568
   150.25    2.627   2.689   2.690   2.692   2.617   2.628   2.647   2.650   2.647   2.641   2.672   2.659   2.696   2.683   2.699   2.699   2.645   2.609   2.634   2.636   2.644   2.580   2.554   2.543   2.617   2.626   2.627   2.615   2.607   2.622   2.602   2.587   2.559
   144.00    2.622   2.657   2.691   2.658   2.653   2.645   2.611   2.624   2.634   2.642   2.649   2.641   2.665   2.642   2.670   2.688   2.659   2.633   2.655   2.646   2.649   2.541   2.571   2.587   2.615   2.632   2.649   2.584   2.602   2.627   2.577   2.553   2.535
   137.75    2.570   2.600   2.660   2.671   2.641   2.604   2.597   2.590   2.636   2.678   2.630   2.628   2.641   2.638   2.659   2.646   2.633   2.659   2.662   2.646   2.630   2.583   2.563   2.578   2.593   2.590   2.599   2.626   2.607   2.635   2.602   2.574   2.525
   131.50    2.572   2.564   2.630   2.638   2.636   2.607   2.607   2.590   2.634   2.638   2.634   2.637   2.666   2.646   2.686   2.675   2.665   2.640   2.639   2.603   2.594   2.584   2.580   2.543   2.566   2.528   2.602   2.629   2.634   2.570   2.564   2.575   2.521
   125.25    2.593   2.621   2.597   2.602   2.618   2.599   2.579   2.561   2.608   2.668   2.639   2.673   2.701   2.685   2.650   2.653   2.673   2.643   2.615   2.606   2.606   2.590   2.552   2.541   2.526   2.552   2.582   2.592   2.621   2.579   2.573   2.529   2.509
   119.00    2.569   2.610   2.613   2.578   2.614   2.590   2.558   2.562   2.621   2.628   2.628   2.652   2.659   2.680   2.659   2.673   2.661   2.609   2.631   2.594   2.584   2.587   2.560   2.512   2.500   2.532   2.562   2.593   2.603   2.572   2.515   2.460   2.451
   112.75    2.583   2.627   2.619   2.628   2.589   2.593   2.578   2.561   2.629   2.629   2.616   2.666   2.686   2.666   2.638   2.648   2.620   2.597   2.566   2.572   2.613   2.560   2.557   2.535   2.521   2.500   2.550   2.568   2.608   2.590   2.486   2.465   2.447
   106.50    2.614   2.613   2.613   2.610   2.587   2.615   2.603   2.595   2.638   2.660   2.640   2.654   2.640   2.622   2.634   2.591   2.625   2.577   2.570   2.595   2.624   2.583   2.561   2.545   2.533   2.509   2.545   2.556   2.607   2.564   2.510   2.475   2.459
   100.25    2.627   2.609   2.610   2.590   2.602   2.625   2.569   2.575   2.620   2.623   2.632   2.651   2.678   2.666   2.606   2.554   2.594   2.590   2.588   2.584   2.606   2.591   2.580   2.564   2.601   2.564   2.523   2.558   2.579   2.516   2.478   2.508   2.455
    94.00    2.621   2.630   2.583   2.596   2.606   2.572   2.591   2.544   2.608   2.625   2.626   2.636   2.610   2.618   2.646   2.596   2.606   2.614   2.613   2.608   2.581   2.580   2.577   2.552   2.550   2.535   2.500   2.533   2.528   2.489   2.463   2.484   2.487
    87.75    2.622   2.620   2.621   2.581   2.597   2.623   2.611   2.591   2.598   2.597   2.567   2.628   2.661   2.633   2.630   2.630   2.606   2.579   2.592   2.581   2.640   2.628   2.605   2.632   2.577   2.549   2.543   2.518   2.506   2.517   2.488   2.500   2.509
    81.50    2.626   2.582   2.587   2.597   2.605   2.636   2.619   2.580   2.603   2.588   2.607   2.595   2.646   2.624   2.649   2.649   2.628   2.544   2.599   2.602   2.620   2.628   2.588   2.571   2.554   2.556   2.565   2.519   2.519   2.516   2.535   2.479   2.474
    75.25    2.637   2.629   2.618   2.596   2.610   2.608   2.610   2.617   2.582   2.574   2.645   2.686   2.641   2.666   2.655   2.647   2.599   2.579   2.604   2.582   2.595   2.601   2.587   2.605   2.615   2.569   2.557   2.557   2.549   2.557   2.537   2.508   2.490
    69.00    2.606   2.643   2.665   2.616   2.584   2.556   2.591   2.601   2.581   2.617   2.638   2.683   2.719   2.699   2.668   2.650   2.641   2.615   2.596   2.601   2.556   2.537   2.549   2.575   2.580   2.606   2.591   2.551   2.537   2.551   2.527   2.548   2.469
    62.75    2.616   2.633   2.677   2.636   2.582   2.557   2.569   2.577   2.581   2.607   2.669   2.688   2.704   2.655   2.654   2.617   2.626   2.610   2.575   2.548   2.551   2.544   2.563   2.572   2.596   2.595   2.578   2.561   2.547   2.505   2.561   2.529   2.505
    56.50    2.638   2.630   2.638   2.617   2.587   2.569   2.532   2.584   2.573   2.615   2.654   2.677   2.659   2.646   2.643   2.657   2.628   2.611   2.632   2.630   2.553   2.544   2.531   2.545   2.579   2.592   2.587   2.616   2.555   2.515   2.515   2.515   2.509
    50.25    2.605   2.644   2.658   2.609   2.605   2.581   2.510   2.547   2.575   2.602   2.654   2.649   2.648   2.669   2.659   2.627   2.638   2.633   2.631   2.594   2.547   2.534   2.566   2.582   2.566   2.600   2.632   2.610   2.561   2.571   2.572   2.577   2.572
    44.00    2.540   2.596   2.580   2.616   2.603   2.551   2.550   2.539   2.562   2.593   2.608   2.593   2.636   2.629   2.663   2.667   2.622   2.641   2.627   2.599   2.565   2.548   2.568   2.623   2.618   2.628   2.632   2.627   2.586   2.567   2.592   2.602   2.587
    37.75    2.529   2.601   2.560   2.611   2.614   2.566   2.569   2.501   2.547   2.596   2.585   2.600   2.636   2.629   2.625   2.617   2.630   2.628   2.618   2.606   2.590   2.576   2.558   2.577   2.608   2.637   2.641   2.611   2.590   2.613   2.603   2.598   2.611
    31.50    2.566   2.567   2.574   2.584   2.619   2.574   2.576   2.522   2.515   2.564   2.519   2.590   2.570   2.563   2.561   2.607   2.634   2.591   2.584   2.573   2.605   2.624   2.603   2.603   2.582   2.609   2.602   2.606   2.609   2.656   2.616   2.578   2.614
    25.25    2.578   2.584   2.569   2.559   2.555   2.554   2.533   2.530   2.572   2.549   2.494   2.514   2.525   2.556   2.578   2.589   2.574   2.577   2.577   2.607   2.599   2.635   2.692   2.649   2.649   2.601   2.580   2.593   2.626   2.620   2.619   2.581   2.623
    19.00    2.601   2.599   2.563   2.564   2.566   2.565   2.564   2.574   2.560   2.552   2.530   2.544   2.561   2.579   2.591   2.573   2.578   2.572   2.624   2.631   2.609   2.630   2.647   2.693   2.660   2.584   2.621   2.628   2.616   2.604   2.635   2.658   2.653

   Height   Standard deviation at grid points for the v component:
   219.00    2.129   2.129   2.129   2.129   2.129   2.129   2.129   2.129   2.129   2.129   2.129   2.129   2.129   2.129   2.129   2.129   2.129   2.129   2.129   2.129   2.129   2.129   2.129   2.129   2.129   2.129   2.129   2.129   2.129   2.129   2.129   2.129   2.129
   212.75    2.129   2.129   2.129   2.129   2.129   2.129   2.129   2.129   2.129   2.129   2.129   2.129   2.129   2.129   2.129   2.129   2.129   2.129   2.129   2.129   2.129   2.129   2.129   2.129   2.129   2.129   2.129   2.129   2.129   2.129   2.129   2.129   2.129
   206.50    2.129   2.129   2.129   2.129   2.129   2.129   2.129   2.129   2.129   2.129   2.129   2.129   2.129   2.129   2.129   2.129   2.129   2.129   2.129   2.129   2.129   2.129   2.129   2.129   2.129   2.129   2.129   2.129   2.129   2.129   2.129   2.129   2.129
   200.25    2.129   2.129   2.129   2.129   2.129   2.129   2.129   2.129   2.129   2.129   2.129   2.129   2.129   2.129   2.129   2.129   2.129   2.129   2.129   2.129   2.129   2.129   2.129   2.129   2.129   2.129   2.129   2.129   2.129   2.129   2.129   2.129   2.129
   194.00    2.129   2.129   2.129   2.129   2.129   2.129   2.129   2.129   2.129   2.129   2.129   2.129   2.129   2.129   2.129   2.129   2.129   2.129   2.129   2.129   2.129   2.129   2.129   2.129   2.129   2.129   2.129   2.129   2.129   2.129   2.129   2.129   2.129
   187.75    2.129   2.129   2.129   2.129   2.129   2.129   2.129   2.129   2.129   2.129   2.129   2.129   2.129   2.129   2.129   2.129   2.129   2.129   2.129   2.129   2.129   2.129   2.129   2.129   2.129   2.129   2.129   2.129   2.129   2.129   2.129   2.129   2.129
   181.50    2.129   2.129   2.129   2.129   2.129   2.129   2.129   2.129   2.129   2.129   2.129   2.129   2.129   2.129   2.129   2.129   2.129   2.129   2.129   2.129   2.129   2.129   2.129   2.129   2.129   2.129   2.129   2.129   2.129   2.129   2.129   2.129   2.129
   175.25    2.129   2.129   2.129   2.129   2.129   2.129   2.129   2.129   2.129   2.129   2.129   2.129   2.129   2.129   2.129   2.129   2.129   2.129   2.129   2.129   2.129   2.129   2.129   2.129   2.129   2.129   2.129   2.129   2.129   2.129   2.129   2.129   2.129
   169.00    2.129   2.129   2.129   2.129   2.129   2.129   2.129   2.129   2.129   2.129   2.129   2.129   2.129   2.129   2.129   2.129   2.129   2.129   2.129   2.129   2.129   2.129   2.129   2.129   2.129   2.129   2.129   2.129   2.129   2.129   2.129   2.129   2.129
   162.75    2.129   2.129   2.129   2.129   2.129   2.129   2.129   2.129   2.129   2.129   2.129   2.129   2.129   2.129   2.129   2.129   2.129   2.129   2.129   2.129   2.129   2.129   2.129   2.129   2.129   2.129   2.129   2.129   2.129   2.129   2.129   2.129   2.129
   156.50    2.129   2.129   2.129   2.129   2.129   2.129   2.129   2.129   2.129   2.129   2.129   2.129   2.129   2.129   2.129   2.129   2.129   2.129   2.129   2.129   2.129   2.129   2.129   2.129   2.129   2.129   2.129   2.129   2.129   2.129   2.129   2.129   2.129
   150.25    2.129   2.129   2.129   2.129   2.129   2.129   2.129   2.129   2.129   2.129   2.129   2.129   2.129   2.129   2.129   2.129   2.129   2.129   2.129   2.129   2.129   2.129   2.129   2.129   2.129   2.129   2.129   2.129   2.129   2.129   2.129   2.129   2.129
   144.00    2.129   2.129   2.129   2.129   2.129   2.129   2.129   2.129   2.129   2.129   2.129   2.129   2.129   2.129   2.129   2.129   2.129   2.129   2.129   2.129   2.129   2.129   2.129   2.129   2.129   2.129   2.129   2.129   2.129   2.129   2.129   2.129   2.129
   137.75    2.129   2.129   2.129   2.129   2.129   2.129   2.129   2.129   2.129   2.129   2.129   2.129   2.129   2.129   2.129   2.129   2.129   2.129   2.129   2.129   2.129   2.129   2.129   2.129   2.129   2.129   2.129   2.129   2.129   2.129   2.129   2.129   2.129
   131.50    2.129   2.129   2.129   2.129   2.129   2.129   2.129   2.129   2.129   2.129   2.129   2.129   2.129   2.129   2.129   2.129   2.129   2.129   2.129   2.129   2.129   2.129   2.129   2.129   2.129   2.129   2.129   2.129   2.129   2.129   2.129   2.129   2.129
   125.25    2.129   2.129   2.129   2.129   2.129   2.129   2.129   2.129   2.129   2.129   2.129   2.129   2.129   2.129   2.129   2.129   2.129   2.129   2.129   2.129   2.129   2.129   2.129   2.129   2.129   2.129   2.129   2.129   2.129   2.129   2.129   2.129   2.129
   119.00    2.129   2.129   2.129   2.129   2.129   2.129   2.129   2.129   2.129   2.129   2.129   2.129   2.129   2.129   2.129   2.129   2.129   2.129   2.129   2.129   2.129   2.129   2.129   2.129   2.129   2.129   2.129   2.129   2.129   2.129   2.129   2.129   2.129
   112.75    2.129   2.129   2.129   2.129   2.129   2.129   2.129   2.129   2.129   2.129   2.129   2.129   2.129   2.129   2.129   2.129   2.129   2.129   2.129   2.129   2.129   2.129   2.129   2.129   2.129   2.129   2.129   2.129   2.129   2.129   2.129   2.129   2.129
   106.50    2.129   2.129   2.129   2.129   2.129   2.129   2.129   2.129   2.129   2.129   2.129   2.129   2.129   2.129   2.129   2.129   2.129   2.129   2.129   2.129   2.129   2.129   2.129   2.129   2.129   2.129   2.129   2.129   2.129   2.129   2.129   2.129   2.129
   100.25    2.129   2.129   2.129   2.129   2.129   2.129   2.129   2.129   2.129   2.129   2.129   2.129   2.129   2.129   2.129   2.129   2.129   2.129   2.129   2.129   2.129   2.129   2.129   2.129   2.129   2.129   2.129   2.129   2.129   2.129   2.129   2.129   2.129
    94.00    2.129   2.129   2.129   2.129   2.129   2.129   2.129   2.129   2.129   2.129   2.129   2.129   2.129   2.129   2.129   2.129   2.129   2.129   2.129   2.129   2.129   2.129   2.129   2.129   2.129   2.129   2.129   2.129   2.129   2.129   2.129   2.129   2.129
    87.75    2.129   2.129   2.129   2.129   2.129   2.129   2.129   2.129   2.129   2.129   2.129   2.129   2.129   2.129   2.129   2.129   2.129   2.129   2.129   2.129   2.129   2.129   2.129   2.129   2.129   2.129   2.129   2.129   2.129   2.129   2.129   2.129   2.129
    81.50    2.129   2.129   2.129   2.129   2.129   2.129   2.129   2.129   2.129   2.129   2.129   2.129   2.129   2.129   2.129   2.129   2.129   2.129   2.129   2.129   2.129   2.129   2.129   2.129   2.129   2.129   2.129   2.129   2.129   2.129   2.129   2.129   2.129
    75.25    2.129   2.129   2.129   2.129   2.129   2.129   2.129   2.129   2.129   2.129   2.129   2.129   2.129   2.129   2.129   2.129   2.129   2.129   2.129   2.129   2.129   2.129   2.129   2.129   2.129   2.129   2.129   2.129   2.129   2.129   2.129   2.129   2.129
    69.00    2.129   2.129   2.129   2.129   2.129   2.129   2.129   2.129   2.129   2.129   2.129   2.129   2.129   2.129   2.129   2.129   2.129   2.129   2.129   2.129   2.129   2.129   2.129   2.129   2.129   2.129   2.129   2.129   2.129   2.129   2.129   2.129   2.129
    62.75    2.129   2.129   2.129   2.129   2.129   2.129   2.129   2.129   2.129   2.129   2.129   2.129   2.129   2.129   2.129   2.129   2.129   2.129   2.129   2.129   2.129   2.129   2.129   2.129   2.129   2.129   2.129   2.129   2.129   2.129   2.129   2.129   2.129
    56.50    2.129   2.129   2.129   2.129   2.129   2.129   2.129   2.129   2.129   2.129   2.129   2.129   2.129   2.129   2.129   2.129   2.129   2.129   2.129   2.129   2.129   2.129   2.129   2.129   2.129   2.129   2.129   2.129   2.129   2.129   2.129   2.129   2.129
    50.25    2.129   2.129   2.129   2.129   2.129   2.129   2.129   2.129   2.129   2.129   2.129   2.129   2.129   2.129   2.129   2.129   2.129   2.129   2.129   2.129   2.129   2.129   2.129   2.129   2.129   2.129   2.129   2.129   2.129   2.129   2.129   2.129   2.129
    44.00    2.129   2.129   2.129   2.129   2.129   2.129   2.129   2.129   2.129   2.129   2.129   2.129   2.129   2.129   2.129   2.129   2.129   2.129   2.129   2.129   2.129   2.129   2.129   2.129   2.129   2.129   2.129   2.129   2.129   2.129   2.129   2.129   2.129
    37.75    2.129   2.129   2.129   2.129   2.129   2.129   2.129   2.129   2.129   2.129   2.129   2.129   2.129   2.129   2.129   2.129   2.129   2.129   2.129   2.129   2.129   2.129   2.129   2.129   2.129   2.129   2.129   2.129   2.129   2.129   2.129   2.129   2.129
    31.50    2.129   2.129   2.129   2.129   2.129   2.129   2.129   2.129   2.129   2.129   2.129   2.129   2.129   2.129   2.129   2.129   2.129   2.129   2.129   2.129   2.129   2.129   2.129   2.129   2.129   2.129   2.129   2.129   2.129   2.129   2.129   2.129   2.129
    25.25    2.129   2.129   2.129   2.129   2.129   2.129   2.129   2.129   2.129   2.129   2.129   2.129   2.129   2.129   2.129   2.129   2.129   2.129   2.129   2.129   2.129   2.129   2.129   2.129   2.129   2.129   2.129   2.129   2.129   2.129   2.129   2.129   2.129
    19.00    2.129   2.129   2.129   2.129   2.129   2.129   2.129   2.129   2.129   2.129   2.129   2.129   2.129   2.129   2.129   2.129   2.129   2.129   2.129   2.129   2.129   2.129   2.129   2.129   2.129   2.129   2.129   2.129   2.129   2.129   2.129   2.129   2.129

   Height   Standard deviation at grid points for the w component:
   219.00    1.331   1.331   1.330   1.330   1.330   1.330   1.330   1.330   1.330   1.330   1.330   1.330   1.331   1.331   1.330   1.330   1.331   1.330   1.330   1.330   1.330   1.330   1.330   1.330   1.330   1.330   1.330   1.330   1.331   1.330   1.330   1.330   1.330
   212.75    1.330   1.330   1.330   1.330   1.330   1.330   1.330   1.331   1.330   1.331   1.331   1.330   1.331   1.330   1.330   1.331   1.330   1.330   1.330   1.330   1.330   1.330   1.331   1.330   1.330   1.330   1.331   1.330   1.330   1.331   1.330   1.330   1.331
   206.50    1.330   1.330   1.330   1.330   1.330   1.330   1.330   1.330   1.330   1.330   1.330   1.330   1.330   1.330   1.330   1.331   1.330   1.330   1.331   1.330   1.330   1.330   1.331   1.331   1.330   1.330   1.330   1.330   1.330   1.330   1.331   1.330   1.331
   200.25    1.330   1.330   1.330   1.330   1.330   1.330   1.330   1.330   1.330   1.330   1.330   1.330   1.330   1.330   1.330   1.330   1.330   1.330   1.331   1.330   1.331   1.330   1.330   1.330   1.330   1.330   1.331   1.330   1.330   1.330   1.330   1.330   1.331
   194.00    1.331   1.330   1.330   1.330   1.330   1.330   1.331   1.330   1.330   1.330   1.330   1.330   1.330   1.330   1.331   1.331   1.330   1.330   1.330   1.330   1.330   1.330   1.330   1.330   1.330   1.330   1.330   1.330   1.331   1.330   1.330   1.330   1.330
   187.75    1.330   1.331   1.331   1.330   1.330   1.330   1.330   1.330   1.330   1.330   1.330   1.330   1.330   1.330   1.330   1.330   1.330   1.330   1.330   1.330   1.330   1.331   1.330   1.330   1.331   1.330   1.330   1.330   1.331   1.330   1.330   1.330   1.330
   181.50    1.330   1.330   1.330   1.330   1.330   1.330   1.330   1.330   1.331   1.330   1.330   1.330   1.330   1.331   1.330   1.330   1.330   1.330   1.330   1.331   1.330   1.330   1.330   1.330   1.330   1.330   1.330   1.330   1.330   1.330   1.330   1.330   1.330
   175.25    1.330   1.330   1.330   1.330   1.330   1.330   1.330   1.330   1.330   1.331   1.330   1.330   1.330   1.330   1.330   1.330   1.330   1.330   1.330   1.330   1.330   1.331   1.330   1.331   1.330   1.330   1.330   1.330   1.330   1.330   1.330   1.330   1.330
   169.00    1.330   1.330   1.331   1.330   1.330   1.330   1.330   1.330   1.330   1.330   1.330   1.330   1.330   1.331   1.330   1.330   1.330   1.330   1.330   1.330   1.330   1.330   1.330   1.330   1.330   1.330   1.331   1.330   1.330   1.330   1.330   1.330   1.330
   162.75    1.331   1.330   1.331   1.330   1.330   1.330   1.330   1.331   1.330   1.330   1.330   1.330   1.330   1.330   1.330   1.330   1.331   1.330   1.330   1.330   1.330   1.330   1.330   1.330   1.331   1.330   1.330   1.330   1.330   1.330   1.330   1.330   1.330
   156.50    1.330   1.330   1.330   1.330   1.330   1.331   1.330   1.330   1.331   1.330   1.331   1.330   1.331   1.330   1.330   1.330   1.330   1.330   1.330   1.330   1.330   1.330   1.330   1.331   1.330   1.331   1.330   1.330   1.330   1.330   1.330   1.330   1.330
   150.25    1.330   1.331   1.330   1.330   1.330   1.330   1.330   1.330   1.330   1.330   1.330   1.331   1.330   1.331   1.330   1.330   1.330   1.330   1.330   1.330   1.331   1.330   1.330   1.330   1.330   1.331   1.331   1.330   1.330   1.330   1.330   1.330   1.330
   144.00    1.330   1.330   1.331   1.330   1.330   1.330   1.330   1.330   1.330   1.330   1.330   1.330   1.330   1.330   1.330   1.330   1.330   1.330   1.330   1.330   1.330   1.331   1.330   1.330   1.331   1.330   1.330   1.330   1.330   1.330   1.330   1.330   1.330
   137.75    1.330   1.330   1.330   1.330   1.330   1.331   1.330   1.330   1.330   1.330   1.330   1.330   1.330   1.330   1.330   1.330   1.330   1.330   1.331   1.330   1.330   1.330   1.330   1.331   1.330   1.330   1.330   1.330   1.330   1.330   1.331   1.330   1.330
   131.50    1.330   1.330   1.331   1.330   1.330   1.330   1.331   1.331   1.330   1.330   1.330   1.330   1.330   1.330   1.330   1.330   1.330   1.330   1.330   1.330   1.330   1.330   1.330   1.331   1.330   1.330   1.330   1.330   1.330   1.330   1.330   1.330   1.330
   125.25    1.330   1.330   1.330   1.330   1.331   1.330   1.330   1.330   1.330   1.330   1.330   1.330   1.331   1.330   1.330   1.330   1.331   1.330   1.331   1.331   1.331   1.330   1.331   1.330   1.330   1.330   1.330   1.330   1.330   1.330   1.331   1.330   1.330
   119.00    1.330   1.330   1.330   1.330   1.330   1.330   1.330   1.330   1.330   1.331   1.330   1.330   1.330   1.331   1.330   1.330   1.330   1.330   1.330   1.330   1.330   1.330   1.331   1.330   1.331   1.331   1.330   1.330   1.330   1.330   1.330   1.331   1.330
   112.75    1.330   1.331   1.330   1.330   1.330   1.330   1.330   1.330   1.330   1.330   1.331   1.330   1.330   1.330   1.331   1.330   1.330   1.330   1.330   1.331   1.330   1.330   1.330   1.330   1.330   1.330   1.330   1.331   1.331   1.330   1.330   1.330   1.330
   106.50    1.330   1.330   1.330   1.331   1.330   1.330   1.331   1.330   1.330   1.330   1.330   1.331   1.330   1.331   1.330   1.330   1.330   1.330   1.330   1.330   1.330   1.330   1.330   1.330   1.330   1.330   1.331   1.330   1.330   1.330   1.330   1.330   1.330
   100.25    1.330   1.330   1.330   1.330   1.330   1.330   1.330   1.330   1.331   1.331   1.330   1.330   1.331   1.330   1.331   1.330   1.330   1.330   1.331   1.330   1.330   1.330   1.330   1.330   1.330   1.330   1.330   1.330   1.330   1.330   1.330   1.330   1.331
    94.00    1.330   1.330   1.330   1.330   1.331   1.330   1.330   1.330   1.331   1.330   1.331   1.330   1.330   1.330   1.331   1.330   1.330   1.330   1.330   1.330   1.330   1.330   1.330   1.330   1.330   1.330   1.330   1.330   1.330   1.330   1.330   1.330   1.330
    87.75    1.331   1.330   1.330   1.331   1.330   1.330   1.330   1.330   1.330   1.330   1.330   1.331   1.330   1.330   1.330   1.331   1.331   1.330   1.330   1.330   1.330   1.330   1.330   1.330   1.330   1.330   1.330   1.330   1.330   1.330   1.330   1.330   1.330
    81.50    1.331   1.330   1.330   1.330   1.330   1.330   1.330   1.330   1.330   1.331   1.330   1.330   1.330   1.331   1.330   1.330   1.330   1.331   1.331   1.330   1.331   1.330   1.330   1.331   1.330   1.330   1.330   1.330   1.330   1.330   1.331   1.331   1.330
    75.25    1.330   1.330   1.330   1.330   1.331   1.331   1.330   1.331   1.330   1.330   1.330   1.330   1.330   1.330   1.331   1.330   1.331   1.330   1.330   1.330   1.330   1.330   1.330   1.331   1.330   1.330   1.330   1.330   1.330   1.330   1.330   1.330   1.330
    69.00    1.330   1.330   1.330   1.330   1.330   1.330   1.331   1.330   1.331   1.330   1.330   1.330   1.330   1.330   1.330   1.330   1.330   1.330   1.330   1.330   1.330   1.330   1.330   1.330   1.330   1.330   1.330   1.330   1.330   1.330   1.330   1.330   1.330
    62.75    1.330   1.330   1.330   1.330   1.330   1.330   1.330   1.330   1.331   1.330   1.331   1.330   1.330   1.330   1.330   1.330   1.331   1.330   1.330   1.330   1.330   1.331   1.330   1.331   1.331   1.330   1.330   1.330   1.330   1.330   1.330   1.330   1.330
    56.50    1.330   1.330   1.330   1.330   1.330   1.330   1.330   1.330   1.330   1.330   1.330   1.330   1.330   1.331   1.331   1.330   1.330   1.330   1.330   1.330   1.330   1.330   1.330   1.331   1.331   1.330   1.330   1.331   1.330   1.330   1.331   1.330   1.330
    50.25    1.330   1.330   1.330   1.330   1.330   1.330   1.330   1.330   1.330   1.330   1.330   1.331   1.330   1.330   1.331   1.330   1.330   1.330   1.330   1.330   1.330   1.330   1.330   1.331   1.330   1.330   1.330   1.330   1.330   1.330   1.330   1.330   1.330
    44.00    1.330   1.330   1.330   1.330   1.330   1.330   1.330   1.330   1.330   1.330   1.331   1.330   1.330   1.330   1.330   1.331   1.330   1.330   1.330   1.330   1.330   1.330   1.330   1.331   1.330   1.331   1.330   1.330   1.330   1.330   1.330   1.330   1.330
    37.75    1.330   1.330   1.330   1.330   1.330   1.330   1.330   1.330   1.330   1.330   1.330   1.330   1.330   1.331   1.330   1.330   1.330   1.330   1.330   1.330   1.330   1.330   1.330   1.330   1.330   1.330   1.330   1.330   1.330   1.330   1.330   1.331   1.330
    31.50    1.330   1.330   1.331   1.330   1.330   1.330   1.330   1.330   1.330   1.330   1.330   1.330   1.331   1.330   1.331   1.330   1.330   1.330   1.330   1.330   1.330   1.330   1.330   1.330   1.330   1.330   1.330   1.330   1.330   1.330   1.331   1.330   1.330
    25.25    1.330   1.330   1.330   1.330   1.331   1.330   1.330   1.330   1.330   1.330   1.330   1.330   1.330   1.330   1.330   1.330   1.330   1.330   1.330   1.330   1.331   1.330   1.330   1.331   1.330   1.330   1.330   1.330   1.331   1.330   1.331   1.330   1.330
    19.00    1.331   1.330   1.331   1.331   1.330   1.330   1.330   1.330   1.331   1.331   1.330   1.330   1.330   1.331   1.330   1.331   1.330   1.330   1.330   1.330   1.330   1.330   1.330   1.330   1.330   1.330   1.330   1.330   1.330   1.330   1.330   1.330   1.331

   Mean standard deviation across all grid points:
      u component:    2.609 m/s
      v component:    2.129 m/s
      w component:    1.330 m/s


U-component (X) statistics from the hub grid point:

   Mean =  22.1000 m/s
   TI   =  12.0407 %

Nyquist frequency of turbulent wind field =        10.000 Hz


Processing complete.  3736.8 CPU seconds used.
