
This summary file was generated by TurbSim (v1.06.00, 21-Sep-2012) on 20-Sep-2017 at 17:58:44.


Runtime Options:

    123456  Random seed #1
    789012  Random seed #2
         F  Output binary HH turbulence parameters?
         F  Output formatted turbulence parameters?
         F  Output AeroDyn HH files?
         T  Output AeroDyn FF files?
         F  Output BLADED FF files?
         F  Output tower data?
         F  Output formatted FF files?
         F  Output coherent turbulence time step file?
         T  Clockwise rotation when looking downwind?
 1 -   HUB  IEC turbulence models scaled to exact specified standard deviation


Turbine/Model Specifications:

        33  Vertical grid-point matrix dimension
        33  Horizontal grid-point matrix dimension
     0.050  Time step [seconds]
  5400.000  Analysis time [seconds]
  5400.000  Usable output time [seconds]
   119.000  Hub height [m]
   200.000  Grid height [m]
   200.000  Grid width [m]
     0.000  Vertical flow angle [degrees]
     0.000  Horizontal flow angle [degrees]


Meteorological Boundary Conditions:

    IECKAI  IEC Kaimal spectral model
         3  IEC standard: IEC 61400-3 Ed. 1: 2006
         C  IEC turbulence characteristic
       NTM  IEC Normal Turbulence Model
       N/A  IEC Extreme Turbulence Model (ETM) "c" parameter [m/s]
       IEC  Wind profile type
   119.000  Reference height [m]
    25.000  Reference wind speed [m/s]
       N/A  Jet height [m]
     0.140  Power law exponent
     0.030  Surface roughness length [m]


You have requested that the following file(s) be generated:

   25ms.bts (AeroDyn/TurbSim full-field wind file)


Turbulence Simulation Scaling Parameter Summary:

   Turbulence model used                            =  IEC Kaimal
   Turbulence characteristic                        =  C
   IEC turbulence type                              =  Normal Turbulence Model
   IEC standard                                     =  IEC 61400-3 Ed. 1: 2006
   Mean wind speed at hub height                    =   25.000 m/s
   Expected value of turbulence intensity at 15 m/s =   12.000%
   Characteristic value of standard deviation       =    2.922 m/s
   Turbulence scale                                 =   42.000 m
   u-component integral scale                       =  340.200 m
   Coherency scale                                  =  340.200 m
   Characteristic value of hub turbulence intensity =   11.688%
   Gradient Richardson number                       =    0.000

   Wind profile type                                =  Power law on rotor disk, logarithmic elsewhere
   Power law exponent                               =    0.140
   Mean shear across rotor disk                     =    0.039 (m/s)/m
   Assumed rotor diameter                           =  200.000 m
   Surface roughness length                         =    0.030 m

   Number of time steps in the FFT                  =   108160
   Number of time steps output                      =   108160


Mean Flow Angles:

   Vertical   =   0.0 degrees
   Horizontal =   0.0 degrees

Mean Wind Speed Profile:

   Height    Wind Speed   Horizontal Angle  U-comp (X)   V-comp (Y)   W-comp (Z)
     (m)        (m/s)         (degrees)       (m/s)        (m/s)        (m/s)   
   ------    ----------   ----------------  ----------   ----------   ----------
    219.0       27.23            0.00         27.23         0.00         0.00
    212.8       27.12            0.00         27.12         0.00         0.00
    206.5       27.01            0.00         27.01         0.00         0.00
    200.2       26.89            0.00         26.89         0.00         0.00
    194.0       26.77            0.00         26.77         0.00         0.00
    187.8       26.65            0.00         26.65         0.00         0.00
    181.5       26.52            0.00         26.52         0.00         0.00
    175.2       26.39            0.00         26.39         0.00         0.00
    169.0       26.26            0.00         26.26         0.00         0.00
    162.8       26.12            0.00         26.12         0.00         0.00
    156.5       25.98            0.00         25.98         0.00         0.00
    150.2       25.83            0.00         25.83         0.00         0.00
    144.0       25.68            0.00         25.68         0.00         0.00
    137.8       25.52            0.00         25.52         0.00         0.00
    131.5       25.35            0.00         25.35         0.00         0.00
    125.2       25.18            0.00         25.18         0.00         0.00
    119.0       25.00            0.00         25.00         0.00         0.00
    112.8       24.81            0.00         24.81         0.00         0.00
    106.5       24.61            0.00         24.61         0.00         0.00
    100.2       24.41            0.00         24.41         0.00         0.00
     94.0       24.19            0.00         24.19         0.00         0.00
     87.8       23.96            0.00         23.96         0.00         0.00
     81.5       23.71            0.00         23.71         0.00         0.00
     75.2       23.45            0.00         23.45         0.00         0.00
     69.0       23.16            0.00         23.16         0.00         0.00
     62.8       22.86            0.00         22.86         0.00         0.00
     56.5       22.52            0.00         22.52         0.00         0.00
     50.2       22.16            0.00         22.16         0.00         0.00
     44.0       21.75            0.00         21.75         0.00         0.00
     37.8       21.29            0.00         21.29         0.00         0.00
     31.5       20.76            0.00         20.76         0.00         0.00
     25.2       20.12            0.00         20.12         0.00         0.00
     19.0       19.34            0.00         19.34         0.00         0.00


Harvested Random Seeds after Generation of the Random Numbers:

    590399505 Harvested seed # 1
    121207631 Harvested seed # 2


Scaling statistics from the hub grid point:

  Component  Target Sigma (m/s)  Simulated Sigma (m/s)  Scaling Factor
  ---------  ------------------  ---------------------  --------------
     u'             2.922                2.929                0.998
     v'             2.338                2.308                1.013
     w'             1.461                1.416                1.032


Hub-Height Simulated Turbulence Statistical Summary:

   Type of Wind        Min (m/s)   Mean (m/s)    Max (m/s)  Sigma (m/s)       TI (%)
   ----------------    ---------   ----------    ---------  -----------       ------
   Longitudinal (u)        14.03        25.00        36.29        2.922       11.688
   Lateral (v)             -9.56         0.00        11.28        2.338        9.350
   Vertical (w)            -5.84         0.00         5.82        1.461        5.844
   U component             14.03        25.00        36.29        2.922       11.688
   V component             -9.56         0.00        11.28        2.338        9.350
   W component             -5.84         0.00         5.82        1.461        5.844
   Horizontal (U&V)        14.05        25.11        36.51        2.917       11.619
   Total                   14.34        25.15        36.53        2.912       11.578

                       Min Reynolds     Mean Reynolds    Max Reynolds    Correlation
   Product             Stress (m/s)^2   Stress (m/s)^2   Stress (m/s)^2  Coefficient
   ----------------    --------------   --------------   --------------  -----------
   u'w'                    -35.159             0.077            39.166         0.018
   u'v'                    -58.848            -0.111            50.333        -0.016
   v'w'                    -29.331            -0.059            31.478        -0.017


   Friction Velocity (Ustar)  =      0.277 m/s
   Maximum Instantaneous TKE  =     72.362 (m/s)^2
   Maximum Instantaneous CTKE =     29.450 (m/s)^2


Grid Point Variance Summary:

   Y-coord -100.00  -93.75  -87.50  -81.25  -75.00  -68.75  -62.50  -56.25  -50.00  -43.75  -37.50  -31.25  -25.00  -18.75  -12.50   -6.25    0.00    6.25   12.50   18.75   25.00   31.25   37.50   43.75   50.00   56.25   62.50   68.75   75.00   81.25   87.50   93.75  100.00

   Height   Standard deviation at grid points for the u component:
   219.00    2.962   2.934   2.952   2.926   2.960   2.947   2.928   2.877   2.818   2.846   2.879   2.923   2.870   2.871   2.900   2.901   2.897   2.905   2.919   2.955   2.920   2.934   2.919   2.909   2.920   2.932   2.984   2.980   2.908   2.883   2.889   2.889   2.922
   212.75    2.972   2.977   2.989   2.989   2.941   2.937   2.883   2.885   2.855   2.844   2.891   2.901   2.886   2.887   2.898   2.909   2.925   2.878   2.897   2.934   2.932   2.953   2.950   2.938   2.932   2.959   2.987   2.911   2.880   2.852   2.899   2.918   2.910
   206.50    2.997   2.993   3.010   3.004   2.960   2.934   2.880   2.862   2.830   2.865   2.850   2.872   2.896   2.911   2.927   2.926   2.927   2.895   2.879   2.902   2.924   2.991   2.991   2.949   2.951   2.968   2.921   2.872   2.901   2.904   2.939   2.948   2.960
   200.25    2.975   2.994   3.011   2.993   2.994   2.929   2.911   2.865   2.811   2.846   2.877   2.887   2.889   2.937   2.960   2.941   2.923   2.887   2.864   2.923   2.935   2.960   2.952   2.965   2.955   2.964   2.901   2.863   2.907   2.911   2.946   2.947   2.935
   194.00    2.961   2.945   2.985   2.967   2.974   2.912   2.887   2.881   2.853   2.830   2.820   2.866   2.915   2.990   3.008   2.974   2.950   2.883   2.924   2.946   2.966   2.940   2.931   2.922   2.891   2.872   2.904   2.895   2.889   2.889   2.912   2.946   2.915
   187.75    2.889   2.934   2.959   2.955   2.931   2.927   2.891   2.884   2.864   2.832   2.850   2.853   2.901   2.961   2.986   2.982   2.935   2.928   2.974   2.998   2.993   2.994   2.897   2.864   2.891   2.909   2.883   2.894   2.873   2.874   2.900   2.890   2.873
   181.50    2.897   2.940   2.972   2.933   2.931   2.897   2.867   2.861   2.873   2.812   2.849   2.870   2.895   2.961   2.980   2.979   2.965   2.979   3.004   2.983   2.965   2.941   2.846   2.859   2.864   2.858   2.868   2.857   2.854   2.883   2.858   2.919   2.916
   175.25    2.935   2.942   2.913   2.942   2.915   2.910   2.837   2.809   2.870   2.893   2.869   2.881   2.857   2.917   2.969   2.956   2.951   2.961   2.954   2.935   2.917   2.893   2.809   2.825   2.840   2.856   2.849   2.863   2.851   2.863   2.894   2.938   2.901
   169.00    2.896   2.936   2.900   2.886   2.930   2.830   2.806   2.825   2.866   2.860   2.885   2.875   2.854   2.882   2.908   2.900   2.891   2.909   2.863   2.866   2.875   2.848   2.861   2.859   2.845   2.853   2.880   2.866   2.873   2.884   2.907   2.884   2.911
   162.75    2.892   2.892   2.891   2.845   2.876   2.875   2.838   2.814   2.828   2.881   2.887   2.921   2.895   2.930   2.981   2.942   2.938   2.915   2.888   2.869   2.821   2.811   2.834   2.845   2.866   2.882   2.859   2.861   2.852   2.835   2.847   2.870   2.871
   156.50    2.850   2.855   2.854   2.852   2.844   2.843   2.833   2.814   2.844   2.902   2.894   2.908   2.912   2.960   2.958   2.966   2.952   2.883   2.894   2.841   2.797   2.796   2.822   2.866   2.864   2.854   2.846   2.843   2.836   2.804   2.824   2.872   2.833
   150.25    2.865   2.876   2.855   2.844   2.861   2.844   2.830   2.838   2.854   2.905   2.927   2.943   2.916   2.914   2.939   2.967   2.929   2.865   2.882   2.851   2.829   2.769   2.817   2.821   2.903   2.901   2.864   2.847   2.828   2.811   2.866   2.847   2.817
   144.00    2.855   2.845   2.867   2.839   2.893   2.845   2.847   2.858   2.866   2.879   2.931   2.921   2.931   2.966   2.946   2.951   2.850   2.843   2.861   2.832   2.808   2.873   2.875   2.841   2.859   2.865   2.862   2.874   2.831   2.845   2.859   2.853   2.826
   137.75    2.902   2.889   2.860   2.840   2.845   2.857   2.827   2.842   2.861   2.892   2.901   2.950   2.938   2.917   2.880   2.913   2.891   2.832   2.863   2.811   2.878   2.899   2.871   2.882   2.877   2.834   2.807   2.845   2.844   2.856   2.862   2.837   2.868
   131.50    2.870   2.909   2.905   2.902   2.833   2.875   2.859   2.863   2.836   2.896   2.918   2.921   2.928   2.926   2.894   2.920   2.853   2.854   2.893   2.874   2.860   2.872   2.890   2.884   2.869   2.822   2.819   2.844   2.843   2.868   2.865   2.881   2.867
   125.25    2.872   2.896   2.920   2.882   2.875   2.871   2.866   2.857   2.815   2.851   2.923   2.924   2.915   2.921   2.903   2.868   2.876   2.865   2.848   2.889   2.855   2.861   2.878   2.889   2.852   2.775   2.800   2.797   2.819   2.855   2.869   2.863   2.911
   119.00    2.868   2.893   2.904   2.888   2.880   2.880   2.930   2.937   2.921   2.925   2.907   2.887   2.897   2.920   2.909   2.906   2.922   2.870   2.883   2.916   2.881   2.893   2.902   2.898   2.829   2.799   2.841   2.794   2.771   2.806   2.842   2.865   2.883
   112.75    2.857   2.869   2.879   2.869   2.901   2.949   2.932   2.931   2.953   2.928   2.919   2.894   2.906   2.912   2.921   2.932   2.939   2.905   2.917   2.943   2.908   2.902   2.918   2.897   2.861   2.811   2.792   2.811   2.837   2.804   2.827   2.861   2.908
   106.50    2.779   2.825   2.833   2.881   2.884   2.931   2.945   2.975   2.947   2.964   2.955   2.919   2.931   2.946   2.908   2.897   2.903   2.886   2.855   2.892   2.884   2.882   2.899   2.921   2.823   2.819   2.834   2.850   2.837   2.825   2.831   2.842   2.879
   100.25    2.826   2.843   2.830   2.867   2.889   2.920   2.934   2.927   2.938   2.925   2.956   2.950   2.898   2.919   2.943   2.908   2.906   2.875   2.871   2.885   2.900   2.869   2.858   2.889   2.858   2.797   2.840   2.846   2.860   2.877   2.843   2.833   2.847
    94.00    2.827   2.846   2.883   2.869   2.897   2.863   2.914   2.905   2.913   2.898   2.897   2.912   2.936   2.900   2.907   2.944   2.972   2.933   2.928   2.933   2.931   2.935   2.929   2.862   2.838   2.815   2.865   2.836   2.825   2.853   2.834   2.829   2.860
    87.75    2.848   2.864   2.915   2.897   2.899   2.855   2.879   2.875   2.898   2.873   2.855   2.896   2.909   2.892   2.982   2.993   2.929   2.971   2.953   2.938   2.966   2.928   2.910   2.846   2.846   2.842   2.807   2.838   2.813   2.814   2.837   2.808   2.834
    81.50    2.866   2.893   2.927   2.875   2.881   2.863   2.889   2.920   2.907   2.841   2.891   2.876   2.923   2.892   2.985   2.977   2.980   2.972   2.922   2.920   2.948   2.930   2.913   2.890   2.849   2.855   2.815   2.833   2.791   2.800   2.779   2.761   2.774
    75.25    2.903   2.934   2.937   2.920   2.918   2.877   2.917   2.952   2.924   2.944   2.933   2.882   2.882   2.960   2.983   3.033   3.015   2.957   2.899   2.857   2.930   2.910   2.870   2.902   2.825   2.821   2.812   2.765   2.771   2.801   2.783   2.826   2.848
    69.00    2.908   2.895   2.912   2.875   2.908   2.932   2.904   2.937   2.948   2.901   2.956   2.910   2.944   2.958   3.012   3.006   3.017   2.957   2.874   2.885   2.907   2.881   2.864   2.846   2.829   2.795   2.813   2.771   2.797   2.772   2.778   2.781   2.827
    62.75    2.875   2.883   2.895   2.855   2.925   2.920   2.951   2.990   2.972   2.962   2.930   2.956   2.937   2.981   3.012   3.007   2.959   2.921   2.876   2.873   2.885   2.872   2.853   2.882   2.843   2.793   2.794   2.776   2.782   2.778   2.785   2.803   2.832
    56.50    2.896   2.901   2.884   2.884   2.876   2.926   2.967   2.971   3.012   2.964   2.974   2.980   2.988   2.990   2.987   2.959   2.964   2.931   2.921   2.850   2.847   2.808   2.832   2.882   2.829   2.792   2.805   2.774   2.762   2.794   2.792   2.830   2.851
    50.25    2.890   2.899   2.882   2.893   2.921   2.892   2.903   2.960   2.913   2.931   2.980   2.983   2.984   2.996   3.007   2.945   2.921   2.931   2.894   2.850   2.836   2.810   2.849   2.840   2.849   2.825   2.818   2.808   2.771   2.734   2.762   2.808   2.841
    44.00    2.909   2.892   2.870   2.856   2.917   2.941   2.894   2.914   2.914   2.976   2.951   2.957   2.981   3.005   2.994   2.937   2.908   2.893   2.894   2.896   2.871   2.845   2.794   2.794   2.797   2.782   2.769   2.738   2.728   2.732   2.756   2.767   2.785
    37.75    2.887   2.901   2.892   2.861   2.858   2.914   2.957   2.934   2.935   2.962   2.946   2.920   2.932   2.986   2.965   2.954   2.964   2.934   2.913   2.891   2.881   2.831   2.825   2.783   2.809   2.759   2.738   2.694   2.728   2.748   2.755   2.764   2.804
    31.50    2.897   2.872   2.870   2.879   2.874   2.965   2.956   2.929   2.964   2.965   2.969   2.951   2.904   2.931   2.962   2.911   2.943   2.948   2.934   2.883   2.837   2.834   2.795   2.783   2.761   2.739   2.755   2.743   2.730   2.724   2.741   2.766   2.811
    25.25    2.903   2.887   2.877   2.912   2.916   2.956   2.953   2.971   2.973   2.987   3.011   2.945   2.931   2.904   2.914   2.924   2.885   2.901   2.898   2.870   2.870   2.862   2.790   2.780   2.816   2.764   2.750   2.756   2.703   2.730   2.777   2.787   2.804
    19.00    2.891   2.894   2.927   2.944   2.906   2.931   2.959   2.958   2.956   3.011   2.984   2.931   2.887   2.907   2.853   2.872   2.870   2.878   2.896   2.869   2.860   2.828   2.809   2.804   2.784   2.763   2.728   2.697   2.690   2.764   2.799   2.843   2.856

   Height   Standard deviation at grid points for the v component:
   219.00    2.338   2.338   2.338   2.338   2.338   2.338   2.338   2.338   2.338   2.338   2.338   2.338   2.338   2.338   2.338   2.338   2.338   2.338   2.338   2.338   2.338   2.338   2.338   2.338   2.338   2.338   2.338   2.338   2.338   2.338   2.338   2.338   2.338
   212.75    2.338   2.338   2.338   2.338   2.338   2.338   2.338   2.338   2.338   2.338   2.338   2.338   2.338   2.338   2.338   2.338   2.338   2.338   2.338   2.338   2.338   2.338   2.338   2.338   2.338   2.338   2.338   2.338   2.338   2.338   2.338   2.338   2.338
   206.50    2.338   2.338   2.338   2.338   2.338   2.338   2.338   2.338   2.338   2.338   2.338   2.338   2.338   2.338   2.338   2.338   2.338   2.338   2.338   2.338   2.338   2.338   2.338   2.338   2.338   2.338   2.338   2.338   2.338   2.338   2.338   2.338   2.338
   200.25    2.338   2.338   2.338   2.338   2.338   2.338   2.338   2.338   2.338   2.338   2.338   2.338   2.338   2.338   2.338   2.338   2.338   2.338   2.338   2.338   2.338   2.338   2.338   2.338   2.338   2.338   2.338   2.338   2.338   2.338   2.338   2.338   2.338
   194.00    2.338   2.338   2.338   2.338   2.338   2.338   2.338   2.338   2.338   2.338   2.338   2.338   2.338   2.338   2.338   2.338   2.338   2.338   2.338   2.338   2.338   2.338   2.338   2.338   2.338   2.338   2.338   2.338   2.338   2.338   2.338   2.338   2.338
   187.75    2.338   2.338   2.338   2.338   2.338   2.338   2.338   2.338   2.338   2.338   2.338   2.338   2.338   2.338   2.338   2.338   2.338   2.338   2.338   2.338   2.338   2.338   2.338   2.338   2.338   2.338   2.338   2.338   2.338   2.338   2.338   2.338   2.338
   181.50    2.338   2.338   2.338   2.338   2.338   2.338   2.338   2.338   2.338   2.338   2.338   2.338   2.338   2.338   2.338   2.338   2.338   2.338   2.338   2.338   2.338   2.338   2.338   2.338   2.338   2.338   2.338   2.338   2.338   2.338   2.338   2.338   2.338
   175.25    2.338   2.338   2.338   2.338   2.338   2.338   2.338   2.338   2.338   2.338   2.338   2.338   2.338   2.338   2.338   2.338   2.338   2.338   2.338   2.338   2.338   2.338   2.338   2.338   2.338   2.338   2.338   2.338   2.338   2.338   2.338   2.338   2.338
   169.00    2.338   2.338   2.338   2.338   2.338   2.338   2.338   2.338   2.338   2.338   2.338   2.338   2.338   2.338   2.338   2.338   2.338   2.338   2.338   2.338   2.338   2.338   2.338   2.338   2.338   2.338   2.338   2.338   2.338   2.338   2.338   2.338   2.338
   162.75    2.338   2.338   2.338   2.338   2.338   2.338   2.338   2.338   2.338   2.338   2.338   2.338   2.338   2.338   2.338   2.338   2.338   2.338   2.338   2.338   2.338   2.338   2.338   2.338   2.338   2.338   2.338   2.338   2.338   2.338   2.338   2.338   2.338
   156.50    2.338   2.338   2.338   2.338   2.338   2.338   2.338   2.338   2.338   2.338   2.338   2.338   2.338   2.338   2.338   2.338   2.338   2.338   2.338   2.338   2.338   2.338   2.338   2.338   2.338   2.338   2.338   2.338   2.338   2.338   2.338   2.338   2.338
   150.25    2.338   2.338   2.338   2.338   2.338   2.338   2.338   2.338   2.338   2.338   2.338   2.338   2.338   2.338   2.338   2.338   2.338   2.338   2.338   2.338   2.338   2.338   2.338   2.338   2.338   2.338   2.338   2.338   2.338   2.338   2.338   2.338   2.338
   144.00    2.338   2.338   2.338   2.338   2.338   2.338   2.338   2.338   2.338   2.338   2.338   2.338   2.338   2.338   2.338   2.338   2.338   2.338   2.338   2.338   2.338   2.338   2.338   2.338   2.338   2.338   2.338   2.338   2.338   2.338   2.338   2.338   2.338
   137.75    2.338   2.338   2.338   2.338   2.338   2.338   2.338   2.338   2.338   2.338   2.338   2.338   2.338   2.338   2.338   2.338   2.338   2.338   2.338   2.338   2.338   2.338   2.338   2.338   2.338   2.338   2.338   2.338   2.338   2.338   2.338   2.338   2.338
   131.50    2.338   2.338   2.338   2.338   2.338   2.338   2.338   2.338   2.338   2.338   2.338   2.338   2.338   2.338   2.338   2.338   2.338   2.338   2.338   2.338   2.338   2.338   2.338   2.338   2.338   2.338   2.338   2.338   2.338   2.338   2.338   2.338   2.338
   125.25    2.338   2.338   2.338   2.338   2.338   2.338   2.338   2.338   2.338   2.338   2.338   2.338   2.338   2.338   2.338   2.338   2.338   2.338   2.338   2.338   2.338   2.338   2.338   2.338   2.338   2.338   2.338   2.338   2.338   2.338   2.338   2.338   2.338
   119.00    2.338   2.338   2.338   2.338   2.338   2.338   2.338   2.338   2.338   2.338   2.338   2.338   2.338   2.338   2.338   2.338   2.338   2.338   2.338   2.338   2.338   2.338   2.338   2.338   2.338   2.338   2.338   2.338   2.338   2.338   2.338   2.338   2.338
   112.75    2.338   2.338   2.338   2.338   2.338   2.338   2.338   2.338   2.338   2.338   2.338   2.338   2.338   2.338   2.338   2.338   2.338   2.338   2.338   2.338   2.338   2.338   2.338   2.338   2.338   2.338   2.338   2.338   2.338   2.338   2.338   2.338   2.338
   106.50    2.338   2.338   2.338   2.338   2.338   2.338   2.338   2.338   2.338   2.338   2.338   2.338   2.338   2.338   2.338   2.338   2.338   2.338   2.338   2.338   2.338   2.338   2.338   2.338   2.338   2.338   2.338   2.338   2.338   2.338   2.338   2.338   2.338
   100.25    2.338   2.338   2.338   2.338   2.338   2.338   2.338   2.338   2.338   2.338   2.338   2.338   2.338   2.338   2.338   2.338   2.338   2.338   2.338   2.338   2.338   2.338   2.338   2.338   2.338   2.338   2.338   2.338   2.338   2.338   2.338   2.338   2.338
    94.00    2.338   2.338   2.338   2.338   2.338   2.338   2.338   2.338   2.338   2.338   2.338   2.338   2.338   2.338   2.338   2.338   2.338   2.338   2.338   2.338   2.338   2.338   2.338   2.338   2.338   2.338   2.338   2.338   2.338   2.338   2.338   2.338   2.338
    87.75    2.338   2.338   2.338   2.338   2.338   2.338   2.338   2.338   2.338   2.338   2.338   2.338   2.338   2.338   2.338   2.338   2.338   2.338   2.338   2.338   2.338   2.338   2.338   2.338   2.338   2.338   2.338   2.338   2.338   2.338   2.338   2.338   2.338
    81.50    2.338   2.338   2.338   2.338   2.338   2.338   2.338   2.338   2.338   2.338   2.338   2.338   2.338   2.338   2.338   2.338   2.338   2.338   2.338   2.338   2.338   2.338   2.338   2.338   2.338   2.338   2.338   2.338   2.338   2.338   2.338   2.338   2.338
    75.25    2.338   2.338   2.338   2.338   2.338   2.338   2.338   2.338   2.338   2.338   2.338   2.338   2.338   2.338   2.338   2.338   2.338   2.338   2.338   2.338   2.338   2.338   2.338   2.338   2.338   2.338   2.338   2.338   2.338   2.338   2.338   2.338   2.338
    69.00    2.338   2.338   2.338   2.338   2.338   2.338   2.338   2.338   2.338   2.338   2.338   2.338   2.338   2.338   2.338   2.338   2.338   2.338   2.338   2.338   2.338   2.338   2.338   2.338   2.338   2.338   2.338   2.338   2.338   2.338   2.338   2.338   2.338
    62.75    2.338   2.338   2.338   2.338   2.338   2.338   2.338   2.338   2.338   2.338   2.338   2.338   2.338   2.338   2.338   2.338   2.338   2.338   2.338   2.338   2.338   2.338   2.338   2.338   2.338   2.338   2.338   2.338   2.338   2.338   2.338   2.338   2.338
    56.50    2.338   2.338   2.338   2.338   2.338   2.338   2.338   2.338   2.338   2.338   2.338   2.338   2.338   2.338   2.338   2.338   2.338   2.338   2.338   2.338   2.338   2.338   2.338   2.338   2.338   2.338   2.338   2.338   2.338   2.338   2.338   2.338   2.338
    50.25    2.338   2.338   2.338   2.338   2.338   2.338   2.338   2.338   2.338   2.338   2.338   2.338   2.338   2.338   2.338   2.338   2.338   2.338   2.338   2.338   2.338   2.338   2.338   2.338   2.338   2.338   2.338   2.338   2.338   2.338   2.338   2.338   2.338
    44.00    2.338   2.338   2.338   2.338   2.338   2.338   2.338   2.338   2.338   2.338   2.338   2.338   2.338   2.338   2.338   2.338   2.338   2.338   2.338   2.338   2.338   2.338   2.338   2.338   2.338   2.338   2.338   2.338   2.338   2.338   2.338   2.338   2.338
    37.75    2.338   2.338   2.338   2.338   2.338   2.338   2.338   2.338   2.338   2.338   2.338   2.338   2.338   2.338   2.338   2.338   2.338   2.338   2.338   2.338   2.338   2.338   2.338   2.338   2.338   2.338   2.338   2.338   2.338   2.338   2.338   2.338   2.338
    31.50    2.338   2.338   2.338   2.338   2.338   2.338   2.338   2.338   2.338   2.338   2.338   2.338   2.338   2.338   2.338   2.338   2.338   2.338   2.338   2.338   2.338   2.338   2.338   2.338   2.338   2.338   2.338   2.338   2.338   2.338   2.338   2.338   2.338
    25.25    2.338   2.338   2.338   2.338   2.338   2.338   2.338   2.338   2.338   2.338   2.338   2.338   2.338   2.338   2.338   2.338   2.338   2.338   2.338   2.338   2.338   2.338   2.338   2.338   2.338   2.338   2.338   2.338   2.338   2.338   2.338   2.338   2.338
    19.00    2.338   2.338   2.338   2.338   2.338   2.338   2.338   2.338   2.338   2.338   2.338   2.338   2.338   2.338   2.338   2.338   2.338   2.338   2.338   2.338   2.338   2.338   2.338   2.338   2.338   2.338   2.338   2.338   2.338   2.338   2.338   2.338   2.338

   Height   Standard deviation at grid points for the w component:
   219.00    1.461   1.461   1.461   1.461   1.461   1.461   1.461   1.461   1.461   1.461   1.461   1.461   1.461   1.461   1.461   1.461   1.461   1.461   1.461   1.461   1.461   1.461   1.461   1.461   1.461   1.461   1.461   1.461   1.461   1.461   1.461   1.461   1.461
   212.75    1.461   1.461   1.461   1.461   1.461   1.461   1.461   1.461   1.461   1.461   1.461   1.461   1.461   1.461   1.461   1.461   1.461   1.461   1.461   1.461   1.461   1.461   1.461   1.461   1.461   1.461   1.461   1.461   1.461   1.461   1.461   1.461   1.461
   206.50    1.461   1.461   1.461   1.461   1.461   1.461   1.461   1.461   1.461   1.461   1.461   1.461   1.461   1.461   1.461   1.461   1.461   1.461   1.461   1.461   1.461   1.461   1.461   1.461   1.461   1.461   1.461   1.461   1.461   1.461   1.461   1.461   1.461
   200.25    1.461   1.461   1.461   1.461   1.461   1.461   1.461   1.461   1.461   1.461   1.461   1.461   1.461   1.461   1.461   1.461   1.461   1.461   1.461   1.461   1.461   1.461   1.461   1.461   1.461   1.461   1.461   1.461   1.461   1.461   1.461   1.461   1.461
   194.00    1.461   1.461   1.461   1.461   1.461   1.461   1.461   1.461   1.461   1.461   1.461   1.461   1.461   1.461   1.461   1.461   1.461   1.461   1.461   1.461   1.461   1.461   1.461   1.461   1.461   1.461   1.461   1.461   1.461   1.461   1.461   1.461   1.461
   187.75    1.461   1.461   1.461   1.461   1.461   1.461   1.461   1.461   1.461   1.461   1.461   1.461   1.461   1.461   1.461   1.461   1.461   1.461   1.461   1.461   1.461   1.461   1.461   1.461   1.461   1.461   1.461   1.461   1.461   1.461   1.461   1.461   1.461
   181.50    1.461   1.461   1.461   1.461   1.461   1.461   1.461   1.461   1.461   1.461   1.461   1.461   1.461   1.461   1.461   1.461   1.461   1.461   1.461   1.461   1.461   1.461   1.461   1.461   1.461   1.461   1.461   1.461   1.461   1.461   1.461   1.461   1.461
   175.25    1.461   1.461   1.461   1.461   1.461   1.461   1.461   1.461   1.461   1.461   1.461   1.461   1.461   1.461   1.461   1.461   1.461   1.461   1.461   1.461   1.461   1.461   1.461   1.461   1.461   1.461   1.461   1.461   1.461   1.461   1.461   1.461   1.461
   169.00    1.461   1.461   1.461   1.461   1.461   1.461   1.461   1.461   1.461   1.461   1.461   1.461   1.461   1.461   1.461   1.461   1.461   1.461   1.461   1.461   1.461   1.461   1.461   1.461   1.461   1.461   1.461   1.461   1.461   1.461   1.461   1.461   1.461
   162.75    1.461   1.461   1.461   1.461   1.461   1.461   1.461   1.461   1.461   1.461   1.461   1.461   1.461   1.461   1.461   1.461   1.461   1.461   1.461   1.461   1.461   1.461   1.461   1.461   1.461   1.461   1.461   1.461   1.461   1.461   1.461   1.461   1.461
   156.50    1.461   1.461   1.461   1.461   1.461   1.461   1.461   1.461   1.461   1.461   1.461   1.461   1.461   1.461   1.461   1.461   1.461   1.461   1.461   1.461   1.461   1.461   1.461   1.461   1.461   1.461   1.461   1.461   1.461   1.461   1.461   1.461   1.461
   150.25    1.461   1.461   1.461   1.461   1.461   1.461   1.461   1.461   1.461   1.461   1.461   1.461   1.461   1.461   1.461   1.461   1.461   1.461   1.461   1.461   1.461   1.461   1.461   1.461   1.461   1.461   1.461   1.461   1.461   1.461   1.461   1.461   1.461
   144.00    1.461   1.461   1.461   1.461   1.461   1.461   1.461   1.461   1.461   1.461   1.461   1.461   1.461   1.461   1.461   1.461   1.461   1.461   1.461   1.461   1.461   1.461   1.461   1.461   1.461   1.461   1.461   1.461   1.461   1.461   1.461   1.461   1.461
   137.75    1.461   1.461   1.461   1.461   1.461   1.461   1.461   1.461   1.461   1.461   1.461   1.461   1.461   1.461   1.461   1.461   1.461   1.461   1.461   1.461   1.461   1.461   1.461   1.461   1.461   1.461   1.461   1.461   1.461   1.461   1.461   1.461   1.461
   131.50    1.461   1.461   1.461   1.461   1.461   1.461   1.461   1.461   1.461   1.461   1.461   1.461   1.461   1.461   1.461   1.461   1.461   1.461   1.461   1.461   1.461   1.461   1.461   1.461   1.461   1.461   1.461   1.461   1.461   1.461   1.461   1.461   1.461
   125.25    1.461   1.461   1.461   1.461   1.461   1.461   1.461   1.461   1.461   1.461   1.461   1.461   1.461   1.461   1.461   1.461   1.461   1.461   1.461   1.461   1.461   1.461   1.461   1.461   1.461   1.461   1.461   1.461   1.461   1.461   1.461   1.461   1.461
   119.00    1.461   1.461   1.461   1.461   1.461   1.461   1.461   1.461   1.461   1.461   1.461   1.461   1.461   1.461   1.461   1.461   1.461   1.461   1.461   1.461   1.461   1.461   1.461   1.461   1.461   1.461   1.461   1.461   1.461   1.461   1.461   1.461   1.461
   112.75    1.461   1.461   1.461   1.461   1.461   1.461   1.461   1.461   1.461   1.461   1.461   1.461   1.461   1.461   1.461   1.461   1.461   1.461   1.461   1.461   1.461   1.461   1.461   1.461   1.461   1.461   1.461   1.461   1.461   1.461   1.461   1.461   1.461
   106.50    1.461   1.461   1.461   1.461   1.461   1.461   1.461   1.461   1.461   1.461   1.461   1.461   1.461   1.461   1.461   1.461   1.461   1.461   1.461   1.461   1.461   1.461   1.461   1.461   1.461   1.461   1.461   1.461   1.461   1.461   1.461   1.461   1.461
   100.25    1.461   1.461   1.461   1.461   1.461   1.461   1.461   1.461   1.461   1.461   1.461   1.461   1.461   1.461   1.461   1.461   1.461   1.461   1.461   1.461   1.461   1.461   1.461   1.461   1.461   1.461   1.461   1.461   1.461   1.461   1.461   1.461   1.461
    94.00    1.461   1.461   1.461   1.461   1.461   1.461   1.461   1.461   1.461   1.461   1.461   1.461   1.461   1.461   1.461   1.461   1.461   1.461   1.461   1.461   1.461   1.461   1.461   1.461   1.461   1.461   1.461   1.461   1.461   1.461   1.461   1.461   1.461
    87.75    1.461   1.461   1.461   1.461   1.461   1.461   1.461   1.461   1.461   1.461   1.461   1.461   1.461   1.461   1.461   1.461   1.461   1.461   1.461   1.461   1.461   1.461   1.461   1.461   1.461   1.461   1.461   1.461   1.461   1.461   1.461   1.461   1.461
    81.50    1.461   1.461   1.461   1.461   1.461   1.461   1.461   1.461   1.461   1.461   1.461   1.461   1.461   1.461   1.461   1.461   1.461   1.461   1.461   1.461   1.461   1.461   1.461   1.461   1.461   1.461   1.461   1.461   1.461   1.461   1.461   1.461   1.461
    75.25    1.461   1.461   1.461   1.461   1.461   1.461   1.461   1.461   1.461   1.461   1.461   1.461   1.461   1.461   1.461   1.461   1.461   1.461   1.461   1.461   1.461   1.461   1.461   1.461   1.461   1.461   1.461   1.461   1.461   1.461   1.461   1.461   1.461
    69.00    1.461   1.461   1.461   1.461   1.461   1.461   1.461   1.461   1.461   1.461   1.461   1.461   1.461   1.461   1.461   1.461   1.461   1.461   1.461   1.461   1.461   1.461   1.461   1.461   1.461   1.461   1.461   1.461   1.461   1.461   1.461   1.461   1.461
    62.75    1.461   1.461   1.461   1.461   1.461   1.461   1.461   1.461   1.461   1.461   1.461   1.461   1.461   1.461   1.461   1.461   1.461   1.461   1.461   1.461   1.461   1.461   1.461   1.461   1.461   1.461   1.461   1.461   1.461   1.461   1.461   1.461   1.461
    56.50    1.461   1.461   1.461   1.461   1.461   1.461   1.461   1.461   1.461   1.461   1.461   1.461   1.461   1.461   1.461   1.461   1.461   1.461   1.461   1.461   1.461   1.461   1.461   1.461   1.461   1.461   1.461   1.461   1.461   1.461   1.461   1.461   1.461
    50.25    1.461   1.461   1.461   1.461   1.461   1.461   1.461   1.461   1.461   1.461   1.461   1.461   1.461   1.461   1.461   1.461   1.461   1.461   1.461   1.461   1.461   1.461   1.461   1.461   1.461   1.461   1.461   1.461   1.461   1.461   1.461   1.461   1.461
    44.00    1.461   1.461   1.461   1.461   1.461   1.461   1.461   1.461   1.461   1.461   1.461   1.461   1.461   1.461   1.461   1.461   1.461   1.461   1.461   1.461   1.461   1.461   1.461   1.461   1.461   1.461   1.461   1.461   1.461   1.461   1.461   1.461   1.461
    37.75    1.461   1.461   1.461   1.461   1.461   1.461   1.461   1.461   1.461   1.461   1.461   1.461   1.461   1.461   1.461   1.461   1.461   1.461   1.461   1.461   1.461   1.461   1.461   1.461   1.461   1.461   1.461   1.461   1.461   1.461   1.461   1.461   1.461
    31.50    1.461   1.461   1.461   1.461   1.461   1.461   1.461   1.461   1.461   1.461   1.461   1.461   1.461   1.461   1.461   1.461   1.461   1.461   1.461   1.461   1.461   1.461   1.461   1.461   1.461   1.461   1.461   1.461   1.461   1.461   1.461   1.461   1.461
    25.25    1.461   1.461   1.461   1.461   1.461   1.461   1.461   1.461   1.461   1.461   1.461   1.461   1.461   1.461   1.461   1.461   1.461   1.461   1.461   1.461   1.461   1.461   1.461   1.461   1.461   1.461   1.461   1.461   1.461   1.461   1.461   1.461   1.461
    19.00    1.461   1.461   1.461   1.461   1.461   1.461   1.461   1.461   1.461   1.461   1.461   1.461   1.461   1.461   1.461   1.461   1.461   1.461   1.461   1.461   1.461   1.461   1.461   1.461   1.461   1.461   1.461   1.461   1.461   1.461   1.461   1.461   1.461

   Mean standard deviation across all grid points:
      u component:    2.887 m/s
      v component:    2.338 m/s
      w component:    1.461 m/s


U-component (X) statistics from the hub grid point:

   Mean =  25.0000 m/s
   TI   =  11.6880 %

Nyquist frequency of turbulent wind field =        10.000 Hz


Processing complete.  3757.7 CPU seconds used.
