
This summary file was generated by TurbSim (v1.06.00, 21-Sep-2012) on 29-Nov-2017 at 17:07:01.


Runtime Options:

    123456  Random seed #1
    789012  Random seed #2
         F  Output binary HH turbulence parameters?
         F  Output formatted turbulence parameters?
         F  Output AeroDyn HH files?
         T  Output AeroDyn FF files?
         F  Output BLADED FF files?
         F  Output tower data?
         F  Output formatted FF files?
         F  Output coherent turbulence time step file?
         T  Clockwise rotation when looking downwind?
 1 -   HUB  IEC turbulence models scaled to exact specified standard deviation


Turbine/Model Specifications:

        33  Vertical grid-point matrix dimension
        33  Horizontal grid-point matrix dimension
     0.050  Time step [seconds]
  5400.000  Analysis time [seconds]
  5400.000  Usable output time [seconds]
   119.000  Hub height [m]
   200.000  Grid height [m]
   200.000  Grid width [m]
     0.000  Vertical flow angle [degrees]
     0.000  Horizontal flow angle [degrees]


Meteorological Boundary Conditions:

    IECKAI  IEC Kaimal spectral model
         3  IEC standard: IEC 61400-3 Ed. 1: 2006
         C  IEC turbulence characteristic
     1EWM1  IEC Extreme 1-Year Wind Speed Model
       N/A  IEC Extreme Turbulence Model (ETM) "c" parameter [m/s]
       IEC  Wind profile type
   119.000  Reference height [m]
       N/A  Reference wind speed [m/s]
       N/A  Jet height [m]
       N/A  Power law exponent
     0.030  Surface roughness length [m]

WARNING:   The EWM parameters are valid for 10-min simulations only.



You have requested that the following file(s) be generated:

   44ms.bts (AeroDyn/TurbSim full-field wind file)


Turbulence Simulation Scaling Parameter Summary:

   Turbulence model used                            =  IEC Kaimal
   Turbulence characteristic                        =  1C
   IEC turbulence type                              =  Extreme 1-Year Wind Speed Model
   Reference wind speed average over 10 minutes     =   50.000 m/s
   Annual wind speed average at hub height          =   10.000 m/s
   IEC standard                                     =  IEC 61400-3 Ed. 1: 2006
   Mean wind speed at hub height                    =   40.000 m/s
   Expected value of turbulence intensity at 15 m/s =   12.000%
   Characteristic value of standard deviation       =    4.400 m/s
   Turbulence scale                                 =   42.000 m
   u-component integral scale                       =  340.200 m
   Coherency scale                                  =  340.200 m
   Characteristic value of hub turbulence intensity =   11.000%
   Gradient Richardson number                       =    0.000

   Wind profile type                                =  Power law on rotor disk, logarithmic elsewhere
   Power law exponent                               =    0.110
   Mean shear across rotor disk                     =    0.050 (m/s)/m
   Assumed rotor diameter                           =  200.000 m
   Surface roughness length                         =    0.030 m

   Number of time steps in the FFT                  =   108108
   Number of time steps output                      =   108100


Mean Flow Angles:

   Vertical   =   0.0 degrees
   Horizontal =   0.0 degrees

Mean Wind Speed Profile:

   Height    Wind Speed   Horizontal Angle  U-comp (X)   V-comp (Y)   W-comp (Z)
     (m)        (m/s)         (degrees)       (m/s)        (m/s)        (m/s)   
   ------    ----------   ----------------  ----------   ----------   ----------
    219.0       42.78            0.00         42.78         0.00         0.00
    212.8       42.64            0.00         42.64         0.00         0.00
    206.5       42.50            0.00         42.50         0.00         0.00
    200.2       42.36            0.00         42.36         0.00         0.00
    194.0       42.21            0.00         42.21         0.00         0.00
    187.8       42.06            0.00         42.06         0.00         0.00
    181.5       41.90            0.00         41.90         0.00         0.00
    175.2       41.74            0.00         41.74         0.00         0.00
    169.0       41.57            0.00         41.57         0.00         0.00
    162.8       41.40            0.00         41.40         0.00         0.00
    156.5       41.22            0.00         41.22         0.00         0.00
    150.2       41.04            0.00         41.04         0.00         0.00
    144.0       40.85            0.00         40.85         0.00         0.00
    137.8       40.65            0.00         40.65         0.00         0.00
    131.5       40.44            0.00         40.44         0.00         0.00
    125.2       40.23            0.00         40.23         0.00         0.00
    119.0       40.00            0.00         40.00         0.00         0.00
    112.8       39.76            0.00         39.76         0.00         0.00
    106.5       39.51            0.00         39.51         0.00         0.00
    100.2       39.25            0.00         39.25         0.00         0.00
     94.0       38.98            0.00         38.98         0.00         0.00
     87.8       38.68            0.00         38.68         0.00         0.00
     81.5       38.37            0.00         38.37         0.00         0.00
     75.2       38.03            0.00         38.03         0.00         0.00
     69.0       37.67            0.00         37.67         0.00         0.00
     62.8       37.28            0.00         37.28         0.00         0.00
     56.5       36.85            0.00         36.85         0.00         0.00
     50.2       36.38            0.00         36.38         0.00         0.00
     44.0       35.85            0.00         35.85         0.00         0.00
     37.8       35.25            0.00         35.25         0.00         0.00
     31.5       34.56            0.00         34.56         0.00         0.00
     25.2       33.73            0.00         33.73         0.00         0.00
     19.0       32.69            0.00         32.69         0.00         0.00


Harvested Random Seeds after Generation of the Random Numbers:

   1047617806 Harvested seed # 1
   1206679124 Harvested seed # 2


Scaling statistics from the hub grid point:

  Component  Target Sigma (m/s)  Simulated Sigma (m/s)  Scaling Factor
  ---------  ------------------  ---------------------  --------------
     u'             4.400                4.289                1.026
     v'             3.520                3.461                1.017
     w'             2.200                2.108                1.044


Hub-Height Simulated Turbulence Statistical Summary:

   Type of Wind        Min (m/s)   Mean (m/s)    Max (m/s)  Sigma (m/s)       TI (%)
   ----------------    ---------   ----------    ---------  -----------       ------
   Longitudinal (u)        23.48        40.00        58.68        4.400       11.000
   Lateral (v)            -14.68         0.00        14.35        3.520        8.800
   Vertical (w)            -9.09         0.00         9.62        2.200        5.500
   U component             23.48        40.00        58.68        4.400       11.000
   V component            -14.68         0.00        14.35        3.520        8.800
   W component             -9.09         0.00         9.62        2.200        5.500
   Horizontal (U&V)        23.64        40.16        59.75        4.391       10.934
   Total                   23.66        40.22        59.76        4.385       10.905

                       Min Reynolds     Mean Reynolds    Max Reynolds    Correlation
   Product             Stress (m/s)^2   Stress (m/s)^2   Stress (m/s)^2  Coefficient
   ----------------    --------------   --------------   --------------  -----------
   u'w'                    -73.026             0.017            77.875         0.002
   u'v'                   -210.460            -0.152           147.754        -0.010
   v'w'                    -83.413            -0.054            71.073        -0.007


   Friction Velocity (Ustar)  =      0.132 m/s
   Maximum Instantaneous TKE  =    238.712 (m/s)^2
   Maximum Instantaneous CTKE =    109.672 (m/s)^2


Grid Point Variance Summary:

   Y-coord -100.00  -93.75  -87.50  -81.25  -75.00  -68.75  -62.50  -56.25  -50.00  -43.75  -37.50  -31.25  -25.00  -18.75  -12.50   -6.25    0.00    6.25   12.50   18.75   25.00   31.25   37.50   43.75   50.00   56.25   62.50   68.75   75.00   81.25   87.50   93.75  100.00

   Height   Standard deviation at grid points for the u component:
   219.00    4.451   4.475   4.477   4.491   4.500   4.484   4.443   4.444   4.389   4.463   4.483   4.468   4.422   4.369   4.335   4.298   4.318   4.285   4.290   4.280   4.275   4.289   4.340   4.355   4.320   4.319   4.285   4.321   4.371   4.375   4.442   4.413   4.453
   212.75    4.437   4.456   4.450   4.437   4.466   4.481   4.440   4.433   4.429   4.439   4.468   4.506   4.472   4.406   4.360   4.299   4.320   4.263   4.302   4.253   4.296   4.302   4.310   4.374   4.363   4.331   4.334   4.321   4.384   4.392   4.446   4.438   4.452
   206.50    4.436   4.435   4.376   4.425   4.431   4.473   4.415   4.400   4.408   4.375   4.425   4.478   4.492   4.473   4.463   4.376   4.324   4.278   4.297   4.319   4.308   4.347   4.318   4.362   4.370   4.358   4.365   4.365   4.397   4.407   4.471   4.443   4.374
   200.25    4.459   4.478   4.448   4.414   4.448   4.407   4.420   4.432   4.416   4.382   4.394   4.484   4.504   4.464   4.457   4.380   4.344   4.299   4.303   4.331   4.338   4.309   4.318   4.326   4.360   4.383   4.365   4.385   4.374   4.424   4.453   4.408   4.404
   194.00    4.503   4.494   4.426   4.452   4.458   4.478   4.435   4.404   4.392   4.401   4.442   4.489   4.473   4.479   4.404   4.383   4.354   4.301   4.317   4.354   4.322   4.263   4.328   4.347   4.326   4.373   4.392   4.431   4.440   4.469   4.431   4.378   4.455
   187.75    4.525   4.460   4.398   4.460   4.454   4.458   4.497   4.482   4.460   4.446   4.417   4.492   4.461   4.482   4.387   4.372   4.352   4.321   4.296   4.290   4.308   4.233   4.278   4.344   4.336   4.369   4.390   4.406   4.427   4.453   4.399   4.407   4.452
   181.50    4.494   4.441   4.413   4.409   4.446   4.439   4.478   4.429   4.492   4.451   4.446   4.416   4.442   4.435   4.421   4.357   4.332   4.298   4.271   4.314   4.354   4.315   4.310   4.309   4.340   4.394   4.394   4.451   4.466   4.439   4.399   4.411   4.434
   175.25    4.480   4.404   4.405   4.413   4.409   4.416   4.418   4.493   4.499   4.530   4.457   4.435   4.480   4.417   4.423   4.366   4.352   4.304   4.281   4.340   4.338   4.336   4.306   4.335   4.374   4.382   4.394   4.417   4.454   4.410   4.377   4.414   4.464
   169.00    4.479   4.461   4.437   4.411   4.364   4.429   4.425   4.469   4.466   4.511   4.488   4.462   4.453   4.492   4.452   4.333   4.312   4.368   4.298   4.292   4.284   4.348   4.365   4.395   4.396   4.368   4.367   4.380   4.435   4.416   4.440   4.495   4.477
   162.75    4.490   4.516   4.492   4.474   4.413   4.435   4.461   4.401   4.418   4.447   4.490   4.435   4.458   4.416   4.367   4.366   4.276   4.268   4.247   4.274   4.309   4.334   4.396   4.405   4.427   4.401   4.397   4.396   4.404   4.394   4.456   4.487   4.521
   156.50    4.545   4.498   4.511   4.501   4.513   4.484   4.462   4.450   4.442   4.443   4.456   4.453   4.439   4.399   4.381   4.362   4.291   4.279   4.301   4.273   4.324   4.322   4.319   4.430   4.472   4.451   4.395   4.387   4.356   4.391   4.411   4.462   4.532
   150.25    4.511   4.523   4.514   4.530   4.532   4.490   4.427   4.492   4.446   4.481   4.416   4.422   4.423   4.378   4.363   4.302   4.325   4.260   4.271   4.268   4.298   4.363   4.345   4.406   4.444   4.461   4.485   4.472   4.447   4.425   4.446   4.468   4.529
   144.00    4.511   4.563   4.514   4.566   4.617   4.527   4.466   4.486   4.446   4.471   4.460   4.425   4.433   4.391   4.365   4.319   4.303   4.272   4.294   4.301   4.326   4.375   4.368   4.430   4.477   4.458   4.468   4.538   4.487   4.476   4.521   4.461   4.467
   137.75    4.524   4.529   4.585   4.589   4.612   4.538   4.438   4.514   4.532   4.521   4.480   4.448   4.450   4.414   4.373   4.324   4.316   4.366   4.364   4.346   4.364   4.400   4.368   4.412   4.459   4.483   4.492   4.543   4.528   4.551   4.516   4.532   4.533
   131.50    4.519   4.509   4.550   4.591   4.610   4.551   4.528   4.524   4.503   4.501   4.468   4.468   4.453   4.417   4.409   4.382   4.390   4.386   4.382   4.339   4.319   4.377   4.388   4.377   4.435   4.426   4.483   4.475   4.526   4.548   4.498   4.539   4.561
   125.25    4.501   4.529   4.532   4.577   4.524   4.545   4.514   4.507   4.502   4.516   4.524   4.456   4.437   4.471   4.417   4.408   4.410   4.400   4.383   4.348   4.353   4.372   4.416   4.426   4.432   4.446   4.510   4.572   4.541   4.542   4.535   4.506   4.531
   119.00    4.503   4.528   4.541   4.528   4.536   4.532   4.512   4.490   4.500   4.509   4.468   4.464   4.441   4.476   4.420   4.418   4.400   4.449   4.438   4.375   4.377   4.403   4.399   4.436   4.440   4.512   4.523   4.591   4.539   4.530   4.521   4.522   4.501
   112.75    4.571   4.563   4.531   4.505   4.489   4.506   4.487   4.515   4.522   4.555   4.492   4.496   4.454   4.497   4.453   4.434   4.434   4.416   4.421   4.455   4.431   4.465   4.408   4.421   4.460   4.485   4.510   4.508   4.514   4.494   4.523   4.534   4.470
   106.50    4.574   4.536   4.543   4.476   4.479   4.468   4.504   4.535   4.570   4.601   4.561   4.502   4.521   4.520   4.470   4.472   4.471   4.449   4.432   4.442   4.478   4.492   4.456   4.408   4.424   4.424   4.466   4.481   4.488   4.445   4.492   4.475   4.463
   100.25    4.574   4.520   4.499   4.475   4.463   4.482   4.521   4.573   4.603   4.568   4.598   4.563   4.532   4.510   4.462   4.491   4.506   4.434   4.490   4.485   4.532   4.448   4.485   4.402   4.457   4.450   4.454   4.472   4.480   4.466   4.502   4.515   4.479
    94.00    4.470   4.492   4.448   4.426   4.476   4.457   4.494   4.532   4.589   4.535   4.589   4.583   4.538   4.534   4.523   4.457   4.504   4.511   4.502   4.583   4.532   4.486   4.478   4.455   4.463   4.434   4.464   4.454   4.474   4.500   4.493   4.530   4.519
    87.75    4.491   4.504   4.539   4.461   4.480   4.500   4.578   4.572   4.549   4.548   4.544   4.544   4.566   4.560   4.500   4.494   4.502   4.523   4.478   4.519   4.537   4.473   4.493   4.423   4.433   4.424   4.459   4.438   4.445   4.501   4.499   4.524   4.510
    81.50    4.451   4.466   4.471   4.555   4.452   4.505   4.515   4.530   4.545   4.540   4.549   4.548   4.603   4.564   4.510   4.506   4.524   4.553   4.490   4.508   4.508   4.439   4.417   4.440   4.417   4.415   4.430   4.386   4.432   4.461   4.509   4.582   4.508
    75.25    4.455   4.456   4.419   4.470   4.458   4.497   4.438   4.458   4.464   4.488   4.506   4.554   4.583   4.534   4.532   4.493   4.553   4.575   4.535   4.462   4.460   4.424   4.454   4.434   4.407   4.420   4.427   4.360   4.398   4.438   4.487   4.504   4.503
    69.00    4.420   4.422   4.423   4.387   4.405   4.410   4.417   4.434   4.440   4.491   4.534   4.564   4.579   4.536   4.550   4.503   4.573   4.547   4.515   4.472   4.444   4.434   4.467   4.449   4.435   4.392   4.401   4.444   4.484   4.533   4.560   4.569   4.537
    62.75    4.404   4.366   4.389   4.405   4.399   4.387   4.410   4.416   4.433   4.480   4.479   4.501   4.507   4.554   4.602   4.536   4.517   4.574   4.515   4.474   4.454   4.427   4.398   4.416   4.464   4.442   4.457   4.466   4.487   4.546   4.573   4.537   4.495
    56.50    4.452   4.416   4.408   4.448   4.479   4.454   4.463   4.462   4.476   4.468   4.455   4.524   4.533   4.480   4.609   4.572   4.568   4.530   4.494   4.476   4.500   4.426   4.426   4.428   4.485   4.498   4.473   4.479   4.520   4.500   4.561   4.540   4.493
    50.25    4.436   4.439   4.486   4.470   4.446   4.420   4.445   4.504   4.454   4.519   4.478   4.499   4.503   4.546   4.547   4.575   4.598   4.493   4.468   4.481   4.472   4.399   4.434   4.478   4.463   4.470   4.456   4.484   4.505   4.532   4.575   4.557   4.480
    44.00    4.520   4.520   4.528   4.507   4.437   4.338   4.410   4.404   4.427   4.434   4.481   4.503   4.479   4.474   4.519   4.516   4.533   4.487   4.454   4.479   4.410   4.407   4.377   4.461   4.453   4.467   4.511   4.520   4.499   4.551   4.616   4.580   4.518
    37.75    4.521   4.550   4.550   4.509   4.400   4.349   4.352   4.463   4.424   4.476   4.451   4.477   4.522   4.488   4.451   4.428   4.470   4.420   4.407   4.407   4.445   4.479   4.384   4.448   4.530   4.500   4.514   4.521   4.524   4.547   4.553   4.571   4.526
    31.50    4.565   4.541   4.547   4.515   4.440   4.383   4.394   4.470   4.448   4.495   4.474   4.518   4.480   4.477   4.458   4.465   4.420   4.409   4.349   4.371   4.399   4.420   4.417   4.491   4.525   4.531   4.528   4.506   4.557   4.505   4.576   4.570   4.548
    25.25    4.522   4.519   4.540   4.538   4.440   4.434   4.391   4.420   4.376   4.425   4.496   4.494   4.483   4.409   4.413   4.398   4.389   4.397   4.401   4.346   4.307   4.356   4.392   4.428   4.522   4.533   4.502   4.518   4.544   4.549   4.530   4.576   4.540
    19.00    4.471   4.447   4.535   4.496   4.419   4.382   4.377   4.405   4.378   4.419   4.451   4.475   4.437   4.407   4.417   4.365   4.376   4.324   4.343   4.356   4.367   4.362   4.349   4.415   4.441   4.509   4.528   4.552   4.579   4.572   4.540   4.532   4.502

   Height   Standard deviation at grid points for the v component:
   219.00    3.520   3.520   3.520   3.520   3.520   3.520   3.520   3.520   3.520   3.520   3.520   3.520   3.520   3.520   3.520   3.520   3.520   3.520   3.520   3.520   3.520   3.520   3.520   3.520   3.520   3.520   3.520   3.520   3.520   3.520   3.520   3.520   3.520
   212.75    3.520   3.520   3.520   3.520   3.520   3.520   3.520   3.520   3.520   3.520   3.520   3.520   3.520   3.520   3.520   3.520   3.520   3.520   3.520   3.520   3.520   3.520   3.520   3.520   3.520   3.520   3.520   3.520   3.520   3.520   3.520   3.520   3.520
   206.50    3.520   3.520   3.520   3.520   3.520   3.520   3.520   3.520   3.520   3.520   3.520   3.520   3.520   3.520   3.520   3.520   3.520   3.520   3.520   3.520   3.520   3.520   3.520   3.520   3.520   3.520   3.520   3.520   3.520   3.520   3.520   3.520   3.520
   200.25    3.520   3.520   3.520   3.520   3.520   3.520   3.520   3.520   3.520   3.520   3.520   3.520   3.520   3.520   3.520   3.520   3.520   3.520   3.520   3.520   3.520   3.520   3.520   3.520   3.520   3.520   3.520   3.520   3.520   3.520   3.520   3.520   3.520
   194.00    3.520   3.520   3.520   3.520   3.520   3.520   3.520   3.520   3.520   3.520   3.520   3.520   3.520   3.520   3.520   3.520   3.520   3.520   3.520   3.520   3.520   3.520   3.520   3.520   3.520   3.520   3.520   3.520   3.520   3.520   3.520   3.520   3.520
   187.75    3.520   3.520   3.520   3.520   3.520   3.520   3.520   3.520   3.520   3.520   3.520   3.520   3.520   3.520   3.520   3.520   3.520   3.520   3.520   3.520   3.520   3.520   3.520   3.520   3.520   3.520   3.520   3.520   3.520   3.520   3.520   3.520   3.520
   181.50    3.520   3.520   3.520   3.520   3.520   3.520   3.520   3.520   3.520   3.520   3.520   3.520   3.520   3.520   3.520   3.520   3.520   3.520   3.520   3.520   3.520   3.520   3.520   3.520   3.520   3.520   3.520   3.520   3.520   3.520   3.520   3.520   3.520
   175.25    3.520   3.520   3.520   3.520   3.520   3.520   3.520   3.520   3.520   3.520   3.520   3.520   3.520   3.520   3.520   3.520   3.520   3.520   3.520   3.520   3.520   3.520   3.520   3.520   3.520   3.520   3.520   3.520   3.520   3.520   3.520   3.520   3.520
   169.00    3.520   3.520   3.520   3.520   3.520   3.520   3.520   3.520   3.520   3.520   3.520   3.520   3.520   3.520   3.520   3.520   3.520   3.520   3.520   3.520   3.520   3.520   3.520   3.520   3.520   3.520   3.520   3.520   3.520   3.520   3.520   3.520   3.520
   162.75    3.520   3.520   3.520   3.520   3.520   3.520   3.520   3.520   3.520   3.520   3.520   3.520   3.520   3.520   3.520   3.520   3.520   3.520   3.520   3.520   3.520   3.520   3.520   3.520   3.520   3.520   3.520   3.520   3.520   3.520   3.520   3.520   3.520
   156.50    3.520   3.520   3.520   3.520   3.520   3.520   3.520   3.520   3.520   3.520   3.520   3.520   3.520   3.520   3.520   3.520   3.520   3.520   3.520   3.520   3.520   3.520   3.520   3.520   3.520   3.520   3.520   3.520   3.520   3.520   3.520   3.520   3.520
   150.25    3.520   3.520   3.520   3.520   3.520   3.520   3.520   3.520   3.520   3.520   3.520   3.520   3.520   3.520   3.520   3.520   3.520   3.520   3.520   3.520   3.520   3.520   3.520   3.520   3.520   3.520   3.520   3.520   3.520   3.520   3.520   3.520   3.520
   144.00    3.520   3.520   3.520   3.520   3.520   3.520   3.520   3.520   3.520   3.520   3.520   3.520   3.520   3.520   3.520   3.520   3.520   3.520   3.520   3.520   3.520   3.520   3.520   3.520   3.520   3.520   3.520   3.520   3.520   3.520   3.520   3.520   3.520
   137.75    3.520   3.520   3.520   3.520   3.520   3.520   3.520   3.520   3.520   3.520   3.520   3.520   3.520   3.520   3.520   3.520   3.520   3.520   3.520   3.520   3.520   3.520   3.520   3.520   3.520   3.520   3.520   3.520   3.520   3.520   3.520   3.520   3.520
   131.50    3.520   3.520   3.520   3.520   3.520   3.520   3.520   3.520   3.520   3.520   3.520   3.520   3.520   3.520   3.520   3.520   3.520   3.520   3.520   3.520   3.520   3.520   3.520   3.520   3.520   3.520   3.520   3.520   3.520   3.520   3.520   3.520   3.520
   125.25    3.520   3.520   3.520   3.520   3.520   3.520   3.520   3.520   3.520   3.520   3.520   3.520   3.520   3.520   3.520   3.520   3.520   3.520   3.520   3.520   3.520   3.520   3.520   3.520   3.520   3.520   3.520   3.520   3.520   3.520   3.520   3.520   3.520
   119.00    3.520   3.520   3.520   3.520   3.520   3.520   3.520   3.520   3.520   3.520   3.520   3.520   3.520   3.520   3.520   3.520   3.520   3.520   3.520   3.520   3.520   3.520   3.520   3.520   3.520   3.520   3.520   3.520   3.520   3.520   3.520   3.520   3.520
   112.75    3.520   3.520   3.520   3.520   3.520   3.520   3.520   3.520   3.520   3.520   3.520   3.520   3.520   3.520   3.520   3.520   3.520   3.520   3.520   3.520   3.520   3.520   3.520   3.520   3.520   3.520   3.520   3.520   3.520   3.520   3.520   3.520   3.520
   106.50    3.520   3.520   3.520   3.520   3.520   3.520   3.520   3.520   3.520   3.520   3.520   3.520   3.520   3.520   3.520   3.520   3.520   3.520   3.520   3.520   3.520   3.520   3.520   3.520   3.520   3.520   3.520   3.520   3.520   3.520   3.520   3.520   3.520
   100.25    3.520   3.520   3.520   3.520   3.520   3.520   3.520   3.520   3.520   3.520   3.520   3.520   3.520   3.520   3.520   3.520   3.520   3.520   3.520   3.520   3.520   3.520   3.520   3.520   3.520   3.520   3.520   3.520   3.520   3.520   3.520   3.520   3.520
    94.00    3.520   3.520   3.520   3.520   3.520   3.520   3.520   3.520   3.520   3.520   3.520   3.520   3.520   3.520   3.520   3.520   3.520   3.520   3.520   3.520   3.520   3.520   3.520   3.520   3.520   3.520   3.520   3.520   3.520   3.520   3.520   3.520   3.520
    87.75    3.520   3.520   3.520   3.520   3.520   3.520   3.520   3.520   3.520   3.520   3.520   3.520   3.520   3.520   3.520   3.520   3.520   3.520   3.520   3.520   3.520   3.520   3.520   3.520   3.520   3.520   3.520   3.520   3.520   3.520   3.520   3.520   3.520
    81.50    3.520   3.520   3.520   3.520   3.520   3.520   3.520   3.520   3.520   3.520   3.520   3.520   3.520   3.520   3.520   3.520   3.520   3.520   3.520   3.520   3.520   3.520   3.520   3.520   3.520   3.520   3.520   3.520   3.520   3.520   3.520   3.520   3.520
    75.25    3.520   3.520   3.520   3.520   3.520   3.520   3.520   3.520   3.520   3.520   3.520   3.520   3.520   3.520   3.520   3.520   3.520   3.520   3.520   3.520   3.520   3.520   3.520   3.520   3.520   3.520   3.520   3.520   3.520   3.520   3.520   3.520   3.520
    69.00    3.520   3.520   3.520   3.520   3.520   3.520   3.520   3.520   3.520   3.520   3.520   3.520   3.520   3.520   3.520   3.520   3.520   3.520   3.520   3.520   3.520   3.520   3.520   3.520   3.520   3.520   3.520   3.520   3.520   3.520   3.520   3.520   3.520
    62.75    3.520   3.520   3.520   3.520   3.520   3.520   3.520   3.520   3.520   3.520   3.520   3.520   3.520   3.520   3.520   3.520   3.520   3.520   3.520   3.520   3.520   3.520   3.520   3.520   3.520   3.520   3.520   3.520   3.520   3.520   3.520   3.520   3.520
    56.50    3.520   3.520   3.520   3.520   3.520   3.520   3.520   3.520   3.520   3.520   3.520   3.520   3.520   3.520   3.520   3.520   3.520   3.520   3.520   3.520   3.520   3.520   3.520   3.520   3.520   3.520   3.520   3.520   3.520   3.520   3.520   3.520   3.520
    50.25    3.520   3.520   3.520   3.520   3.520   3.520   3.520   3.520   3.520   3.520   3.520   3.520   3.520   3.520   3.520   3.520   3.520   3.520   3.520   3.520   3.520   3.520   3.520   3.520   3.520   3.520   3.520   3.520   3.520   3.520   3.520   3.520   3.520
    44.00    3.520   3.520   3.520   3.520   3.520   3.520   3.520   3.520   3.520   3.520   3.520   3.520   3.520   3.520   3.520   3.520   3.520   3.520   3.520   3.520   3.520   3.520   3.520   3.520   3.520   3.520   3.520   3.520   3.520   3.520   3.520   3.520   3.520
    37.75    3.520   3.520   3.520   3.520   3.520   3.520   3.520   3.520   3.520   3.520   3.520   3.520   3.520   3.520   3.520   3.520   3.520   3.520   3.520   3.520   3.520   3.520   3.520   3.520   3.520   3.520   3.520   3.520   3.520   3.520   3.520   3.520   3.520
    31.50    3.520   3.520   3.520   3.520   3.520   3.520   3.520   3.520   3.520   3.520   3.520   3.520   3.520   3.520   3.520   3.520   3.520   3.520   3.520   3.520   3.520   3.520   3.520   3.520   3.520   3.520   3.520   3.520   3.520   3.520   3.520   3.520   3.520
    25.25    3.520   3.520   3.520   3.520   3.520   3.520   3.520   3.520   3.520   3.520   3.520   3.520   3.520   3.520   3.520   3.520   3.520   3.520   3.520   3.520   3.520   3.520   3.520   3.520   3.520   3.520   3.520   3.520   3.520   3.520   3.520   3.520   3.520
    19.00    3.520   3.520   3.520   3.520   3.520   3.520   3.520   3.520   3.520   3.520   3.520   3.520   3.520   3.520   3.520   3.520   3.520   3.520   3.520   3.520   3.520   3.520   3.520   3.520   3.520   3.520   3.520   3.520   3.520   3.520   3.520   3.520   3.520

   Height   Standard deviation at grid points for the w component:
   219.00    2.200   2.200   2.200   2.200   2.200   2.200   2.200   2.200   2.200   2.200   2.200   2.200   2.200   2.200   2.200   2.200   2.200   2.200   2.200   2.200   2.200   2.200   2.200   2.200   2.200   2.200   2.200   2.200   2.200   2.200   2.200   2.200   2.200
   212.75    2.200   2.200   2.200   2.200   2.200   2.200   2.200   2.200   2.200   2.200   2.200   2.200   2.200   2.200   2.200   2.200   2.200   2.200   2.200   2.200   2.200   2.200   2.200   2.200   2.200   2.200   2.200   2.200   2.200   2.200   2.200   2.200   2.200
   206.50    2.200   2.200   2.200   2.200   2.200   2.200   2.200   2.200   2.200   2.200   2.200   2.200   2.200   2.200   2.200   2.200   2.200   2.200   2.200   2.200   2.200   2.200   2.200   2.200   2.200   2.200   2.200   2.200   2.200   2.200   2.200   2.200   2.200
   200.25    2.200   2.200   2.200   2.200   2.200   2.200   2.200   2.200   2.200   2.200   2.200   2.200   2.200   2.200   2.200   2.200   2.200   2.200   2.200   2.200   2.200   2.200   2.200   2.200   2.200   2.200   2.200   2.200   2.200   2.200   2.200   2.200   2.200
   194.00    2.200   2.200   2.200   2.200   2.200   2.200   2.200   2.200   2.200   2.200   2.200   2.200   2.200   2.200   2.200   2.200   2.200   2.200   2.200   2.200   2.200   2.200   2.200   2.200   2.200   2.200   2.200   2.200   2.200   2.200   2.200   2.200   2.200
   187.75    2.200   2.200   2.200   2.200   2.200   2.200   2.200   2.200   2.200   2.200   2.200   2.200   2.200   2.200   2.200   2.200   2.200   2.200   2.200   2.200   2.200   2.200   2.200   2.200   2.200   2.200   2.200   2.200   2.200   2.200   2.200   2.200   2.200
   181.50    2.200   2.200   2.200   2.200   2.200   2.200   2.200   2.200   2.200   2.200   2.200   2.200   2.200   2.200   2.200   2.200   2.200   2.200   2.200   2.200   2.200   2.200   2.200   2.200   2.200   2.200   2.200   2.200   2.200   2.200   2.200   2.200   2.200
   175.25    2.200   2.200   2.200   2.200   2.200   2.200   2.200   2.200   2.200   2.200   2.200   2.200   2.200   2.200   2.200   2.200   2.200   2.200   2.200   2.200   2.200   2.200   2.200   2.200   2.200   2.200   2.200   2.200   2.200   2.200   2.200   2.200   2.200
   169.00    2.200   2.200   2.200   2.200   2.200   2.200   2.200   2.200   2.200   2.200   2.200   2.200   2.200   2.200   2.200   2.200   2.200   2.200   2.200   2.200   2.200   2.200   2.200   2.200   2.200   2.200   2.200   2.200   2.200   2.200   2.200   2.200   2.200
   162.75    2.200   2.200   2.200   2.200   2.200   2.200   2.200   2.200   2.200   2.200   2.200   2.200   2.200   2.200   2.200   2.200   2.200   2.200   2.200   2.200   2.200   2.200   2.200   2.200   2.200   2.200   2.200   2.200   2.200   2.200   2.200   2.200   2.200
   156.50    2.200   2.200   2.200   2.200   2.200   2.200   2.200   2.200   2.200   2.200   2.200   2.200   2.200   2.200   2.200   2.200   2.200   2.200   2.200   2.200   2.200   2.200   2.200   2.200   2.200   2.200   2.200   2.200   2.200   2.200   2.200   2.200   2.200
   150.25    2.200   2.200   2.200   2.200   2.200   2.200   2.200   2.200   2.200   2.200   2.200   2.200   2.200   2.200   2.200   2.200   2.200   2.200   2.200   2.200   2.200   2.200   2.200   2.200   2.200   2.200   2.200   2.200   2.200   2.200   2.200   2.200   2.200
   144.00    2.200   2.200   2.200   2.200   2.200   2.200   2.200   2.200   2.200   2.200   2.200   2.200   2.200   2.200   2.200   2.200   2.200   2.200   2.200   2.200   2.200   2.200   2.200   2.200   2.200   2.200   2.200   2.200   2.200   2.200   2.200   2.200   2.200
   137.75    2.200   2.200   2.200   2.200   2.200   2.200   2.200   2.200   2.200   2.200   2.200   2.200   2.200   2.200   2.200   2.200   2.200   2.200   2.200   2.200   2.200   2.200   2.200   2.200   2.200   2.200   2.200   2.200   2.200   2.200   2.200   2.200   2.200
   131.50    2.200   2.200   2.200   2.200   2.200   2.200   2.200   2.200   2.200   2.200   2.200   2.200   2.200   2.200   2.200   2.200   2.200   2.200   2.200   2.200   2.200   2.200   2.200   2.200   2.200   2.200   2.200   2.200   2.200   2.200   2.200   2.200   2.200
   125.25    2.200   2.200   2.200   2.200   2.200   2.200   2.200   2.200   2.200   2.200   2.200   2.200   2.200   2.200   2.200   2.200   2.200   2.200   2.200   2.200   2.200   2.200   2.200   2.200   2.200   2.200   2.200   2.200   2.200   2.200   2.200   2.200   2.200
   119.00    2.200   2.200   2.200   2.200   2.200   2.200   2.200   2.200   2.200   2.200   2.200   2.200   2.200   2.200   2.200   2.200   2.200   2.200   2.200   2.200   2.200   2.200   2.200   2.200   2.200   2.200   2.200   2.200   2.200   2.200   2.200   2.200   2.200
   112.75    2.200   2.200   2.200   2.200   2.200   2.200   2.200   2.200   2.200   2.200   2.200   2.200   2.200   2.200   2.200   2.200   2.200   2.200   2.200   2.200   2.200   2.200   2.200   2.200   2.200   2.200   2.200   2.200   2.200   2.200   2.200   2.200   2.200
   106.50    2.200   2.200   2.200   2.200   2.200   2.200   2.200   2.200   2.200   2.200   2.200   2.200   2.200   2.200   2.200   2.200   2.200   2.200   2.200   2.200   2.200   2.200   2.200   2.200   2.200   2.200   2.200   2.200   2.200   2.200   2.200   2.200   2.200
   100.25    2.200   2.200   2.200   2.200   2.200   2.200   2.200   2.200   2.200   2.200   2.200   2.200   2.200   2.200   2.200   2.200   2.200   2.200   2.200   2.200   2.200   2.200   2.200   2.200   2.200   2.200   2.200   2.200   2.200   2.200   2.200   2.200   2.200
    94.00    2.200   2.200   2.200   2.200   2.200   2.200   2.200   2.200   2.200   2.200   2.200   2.200   2.200   2.200   2.200   2.200   2.200   2.200   2.200   2.200   2.200   2.200   2.200   2.200   2.200   2.200   2.200   2.200   2.200   2.200   2.200   2.200   2.200
    87.75    2.200   2.200   2.200   2.200   2.200   2.200   2.200   2.200   2.200   2.200   2.200   2.200   2.200   2.200   2.200   2.200   2.200   2.200   2.200   2.200   2.200   2.200   2.200   2.200   2.200   2.200   2.200   2.200   2.200   2.200   2.200   2.200   2.200
    81.50    2.200   2.200   2.200   2.200   2.200   2.200   2.200   2.200   2.200   2.200   2.200   2.200   2.200   2.200   2.200   2.200   2.200   2.200   2.200   2.200   2.200   2.200   2.200   2.200   2.200   2.200   2.200   2.200   2.200   2.200   2.200   2.200   2.200
    75.25    2.200   2.200   2.200   2.200   2.200   2.200   2.200   2.200   2.200   2.200   2.200   2.200   2.200   2.200   2.200   2.200   2.200   2.200   2.200   2.200   2.200   2.200   2.200   2.200   2.200   2.200   2.200   2.200   2.200   2.200   2.200   2.200   2.200
    69.00    2.200   2.200   2.200   2.200   2.200   2.200   2.200   2.200   2.200   2.200   2.200   2.200   2.200   2.200   2.200   2.200   2.200   2.200   2.200   2.200   2.200   2.200   2.200   2.200   2.200   2.200   2.200   2.200   2.200   2.200   2.200   2.200   2.200
    62.75    2.200   2.200   2.200   2.200   2.200   2.200   2.200   2.200   2.200   2.200   2.200   2.200   2.200   2.200   2.200   2.200   2.200   2.200   2.200   2.200   2.200   2.200   2.200   2.200   2.200   2.200   2.200   2.200   2.200   2.200   2.200   2.200   2.200
    56.50    2.200   2.200   2.200   2.200   2.200   2.200   2.200   2.200   2.200   2.200   2.200   2.200   2.200   2.200   2.200   2.200   2.200   2.200   2.200   2.200   2.200   2.200   2.200   2.200   2.200   2.200   2.200   2.200   2.200   2.200   2.200   2.200   2.200
    50.25    2.200   2.200   2.200   2.200   2.200   2.200   2.200   2.200   2.200   2.200   2.200   2.200   2.200   2.200   2.200   2.200   2.200   2.200   2.200   2.200   2.200   2.200   2.200   2.200   2.200   2.200   2.200   2.200   2.200   2.200   2.200   2.200   2.200
    44.00    2.200   2.200   2.200   2.200   2.200   2.200   2.200   2.200   2.200   2.200   2.200   2.200   2.200   2.200   2.200   2.200   2.200   2.200   2.200   2.200   2.200   2.200   2.200   2.200   2.200   2.200   2.200   2.200   2.200   2.200   2.200   2.200   2.200
    37.75    2.200   2.200   2.200   2.200   2.200   2.200   2.200   2.200   2.200   2.200   2.200   2.200   2.200   2.200   2.200   2.200   2.200   2.200   2.200   2.200   2.200   2.200   2.200   2.200   2.200   2.200   2.200   2.200   2.200   2.200   2.200   2.200   2.200
    31.50    2.200   2.200   2.200   2.200   2.200   2.200   2.200   2.200   2.200   2.200   2.200   2.200   2.200   2.200   2.200   2.200   2.200   2.200   2.200   2.200   2.200   2.200   2.200   2.200   2.200   2.200   2.200   2.200   2.200   2.200   2.200   2.200   2.200
    25.25    2.200   2.200   2.200   2.200   2.200   2.200   2.200   2.200   2.200   2.200   2.200   2.200   2.200   2.200   2.200   2.200   2.200   2.200   2.200   2.200   2.200   2.200   2.200   2.200   2.200   2.200   2.200   2.200   2.200   2.200   2.200   2.200   2.200
    19.00    2.200   2.200   2.200   2.200   2.200   2.200   2.200   2.200   2.200   2.200   2.200   2.200   2.200   2.200   2.200   2.200   2.200   2.200   2.200   2.200   2.200   2.200   2.200   2.200   2.200   2.200   2.200   2.200   2.200   2.200   2.200   2.200   2.200

   Mean standard deviation across all grid points:
      u component:    4.451 m/s
      v component:    3.520 m/s
      w component:    2.200 m/s


U-component (X) statistics from the hub grid point:

   Mean =  40.0000 m/s
   TI   =  11.0000 %

Nyquist frequency of turbulent wind field =        10.000 Hz


Processing complete.  3391.6 CPU seconds used.
