
This summary file was generated by TurbSim (v1.06.00, 21-Sep-2012) on 20-Sep-2017 at 17:57:57.


Runtime Options:

    123456  Random seed #1
    789012  Random seed #2
         F  Output binary HH turbulence parameters?
         F  Output formatted turbulence parameters?
         F  Output AeroDyn HH files?
         T  Output AeroDyn FF files?
         F  Output BLADED FF files?
         F  Output tower data?
         F  Output formatted FF files?
         F  Output coherent turbulence time step file?
         T  Clockwise rotation when looking downwind?
 1 -   HUB  IEC turbulence models scaled to exact specified standard deviation


Turbine/Model Specifications:

        33  Vertical grid-point matrix dimension
        33  Horizontal grid-point matrix dimension
     0.050  Time step [seconds]
  5400.000  Analysis time [seconds]
  5400.000  Usable output time [seconds]
   119.000  Hub height [m]
   200.000  Grid height [m]
   200.000  Grid width [m]
     0.000  Vertical flow angle [degrees]
     0.000  Horizontal flow angle [degrees]


Meteorological Boundary Conditions:

    IECKAI  IEC Kaimal spectral model
         3  IEC standard: IEC 61400-3 Ed. 1: 2006
         C  IEC turbulence characteristic
       NTM  IEC Normal Turbulence Model
       N/A  IEC Extreme Turbulence Model (ETM) "c" parameter [m/s]
       IEC  Wind profile type
   119.000  Reference height [m]
     5.000  Reference wind speed [m/s]
       N/A  Jet height [m]
     0.140  Power law exponent
     0.030  Surface roughness length [m]


You have requested that the following file(s) be generated:

   5ms.bts (AeroDyn/TurbSim full-field wind file)


Turbulence Simulation Scaling Parameter Summary:

   Turbulence model used                            =  IEC Kaimal
   Turbulence characteristic                        =  C
   IEC turbulence type                              =  Normal Turbulence Model
   IEC standard                                     =  IEC 61400-3 Ed. 1: 2006
   Mean wind speed at hub height                    =    5.000 m/s
   Expected value of turbulence intensity at 15 m/s =   12.000%
   Characteristic value of standard deviation       =    1.122 m/s
   Turbulence scale                                 =   42.000 m
   u-component integral scale                       =  340.200 m
   Coherency scale                                  =  340.200 m
   Characteristic value of hub turbulence intensity =   22.440%
   Gradient Richardson number                       =    0.000

   Wind profile type                                =  Power law on rotor disk, logarithmic elsewhere
   Power law exponent                               =    0.140
   Mean shear across rotor disk                     =    0.008 (m/s)/m
   Assumed rotor diameter                           =  200.000 m
   Surface roughness length                         =    0.030 m

   Number of time steps in the FFT                  =   108800
   Number of time steps output                      =   108800


Mean Flow Angles:

   Vertical   =   0.0 degrees
   Horizontal =   0.0 degrees

Mean Wind Speed Profile:

   Height    Wind Speed   Horizontal Angle  U-comp (X)   V-comp (Y)   W-comp (Z)
     (m)        (m/s)         (degrees)       (m/s)        (m/s)        (m/s)   
   ------    ----------   ----------------  ----------   ----------   ----------
    219.0        5.45            0.00          5.45         0.00         0.00
    212.8        5.42            0.00          5.42         0.00         0.00
    206.5        5.40            0.00          5.40         0.00         0.00
    200.2        5.38            0.00          5.38         0.00         0.00
    194.0        5.35            0.00          5.35         0.00         0.00
    187.8        5.33            0.00          5.33         0.00         0.00
    181.5        5.30            0.00          5.30         0.00         0.00
    175.2        5.28            0.00          5.28         0.00         0.00
    169.0        5.25            0.00          5.25         0.00         0.00
    162.8        5.22            0.00          5.22         0.00         0.00
    156.5        5.20            0.00          5.20         0.00         0.00
    150.2        5.17            0.00          5.17         0.00         0.00
    144.0        5.14            0.00          5.14         0.00         0.00
    137.8        5.10            0.00          5.10         0.00         0.00
    131.5        5.07            0.00          5.07         0.00         0.00
    125.2        5.04            0.00          5.04         0.00         0.00
    119.0        5.00            0.00          5.00         0.00         0.00
    112.8        4.96            0.00          4.96         0.00         0.00
    106.5        4.92            0.00          4.92         0.00         0.00
    100.2        4.88            0.00          4.88         0.00         0.00
     94.0        4.84            0.00          4.84         0.00         0.00
     87.8        4.79            0.00          4.79         0.00         0.00
     81.5        4.74            0.00          4.74         0.00         0.00
     75.2        4.69            0.00          4.69         0.00         0.00
     69.0        4.63            0.00          4.63         0.00         0.00
     62.8        4.57            0.00          4.57         0.00         0.00
     56.5        4.50            0.00          4.50         0.00         0.00
     50.2        4.43            0.00          4.43         0.00         0.00
     44.0        4.35            0.00          4.35         0.00         0.00
     37.8        4.26            0.00          4.26         0.00         0.00
     31.5        4.15            0.00          4.15         0.00         0.00
     25.2        4.02            0.00          4.02         0.00         0.00
     19.0        3.87            0.00          3.87         0.00         0.00


Harvested Random Seeds after Generation of the Random Numbers:

    526564180 Harvested seed # 1
   1463497586 Harvested seed # 2


Scaling statistics from the hub grid point:

  Component  Target Sigma (m/s)  Simulated Sigma (m/s)  Scaling Factor
  ---------  ------------------  ---------------------  --------------
     u'             1.122                1.127                0.996
     v'             0.898                0.890                1.008
     w'             0.561                0.555                1.012


Hub-Height Simulated Turbulence Statistical Summary:

   Type of Wind        Min (m/s)   Mean (m/s)    Max (m/s)  Sigma (m/s)       TI (%)
   ----------------    ---------   ----------    ---------  -----------       ------
   Longitudinal (u)         1.38         5.00         9.16        1.122       22.440
   Lateral (v)             -3.44         0.00         3.27        0.898       17.952
   Vertical (w)            -2.31         0.00         2.43        0.561       11.220
   U component              1.38         5.00         9.16        1.122       22.440
   V component             -3.44         0.00         3.27        0.898       17.952
   W component             -2.31         0.00         2.43        0.561       11.220
   Horizontal (U&V)         1.38         5.08         9.17        1.104       21.709
   Total                    1.48         5.12         9.17        1.097       21.450

                       Min Reynolds     Mean Reynolds    Max Reynolds    Correlation
   Product             Stress (m/s)^2   Stress (m/s)^2   Stress (m/s)^2  Coefficient
   ----------------    --------------   --------------   --------------  -----------
   u'w'                     -4.131             0.043             5.102         0.068
   u'v'                     -5.848             0.065             7.396         0.064
   v'w'                     -4.470            -0.022             4.881        -0.044


   Friction Velocity (Ustar)  =      0.206 m/s
   Maximum Instantaneous TKE  =      8.937 (m/s)^2
   Maximum Instantaneous CTKE =      3.959 (m/s)^2


Grid Point Variance Summary:

   Y-coord -100.00  -93.75  -87.50  -81.25  -75.00  -68.75  -62.50  -56.25  -50.00  -43.75  -37.50  -31.25  -25.00  -18.75  -12.50   -6.25    0.00    6.25   12.50   18.75   25.00   31.25   37.50   43.75   50.00   56.25   62.50   68.75   75.00   81.25   87.50   93.75  100.00

   Height   Standard deviation at grid points for the u component:
   219.00    1.043   1.060   1.062   1.035   1.010   1.007   0.986   1.004   0.994   0.964   0.968   0.979   1.028   1.097   1.145   1.145   1.140   1.083   1.121   1.154   1.088   1.088   1.099   1.101   1.136   1.127   1.104   1.071   1.060   1.047   1.068   1.067   1.008
   212.75    1.084   1.073   1.052   1.039   0.993   1.040   1.020   0.975   0.970   0.949   0.989   1.014   1.028   1.057   1.098   1.132   1.109   1.122   1.127   1.135   1.087   1.081   1.087   1.099   1.101   1.086   1.116   1.068   1.045   1.054   1.047   1.017   1.011
   206.50    1.109   1.084   1.094   1.038   1.033   1.038   1.031   0.961   0.975   0.945   0.974   1.021   1.058   1.111   1.110   1.102   1.095   1.089   1.101   1.121   1.092   1.084   1.113   1.136   1.111   1.090   1.066   1.059   1.064   1.055   1.011   1.001   1.026
   200.25    1.096   1.101   1.086   1.026   1.016   1.064   1.073   1.046   1.023   1.005   0.997   1.032   1.084   1.099   1.108   1.100   1.135   1.109   1.106   1.087   1.099   1.068   1.090   1.109   1.098   1.088   1.076   1.038   1.057   1.015   1.009   1.026   1.031
   194.00    1.095   1.054   1.063   1.049   1.072   1.086   1.069   1.068   1.032   1.056   1.043   1.057   1.096   1.107   1.095   1.114   1.107   1.093   1.068   1.055   1.059   1.076   1.090   1.055   1.046   1.064   1.078   1.074   1.003   1.003   1.030   1.017   1.039
   187.75    1.063   1.038   1.052   1.040   1.052   1.085   1.084   1.112   1.066   1.081   1.052   1.041   1.053   1.065   1.069   1.070   1.086   1.080   1.043   1.012   1.032   1.047   1.038   1.026   1.007   1.070   1.093   1.070   1.062   1.014   1.055   1.021   1.053
   181.50    1.063   1.023   1.047   1.036   1.034   1.051   1.104   1.102   1.052   1.053   1.030   1.038   1.058   1.058   1.037   1.034   1.058   1.063   1.059   1.059   1.041   1.012   1.009   1.013   1.015   1.070   1.113   1.085   1.064   1.050   1.094   1.077   1.096
   175.25    1.006   1.028   1.036   1.028   1.039   1.052   1.049   1.056   1.061   1.067   1.079   1.064   1.095   1.069   1.038   1.080   1.034   1.040   1.055   1.026   0.991   1.005   1.001   1.040   1.021   1.059   1.081   1.061   1.085   1.042   1.060   1.092   1.073
   169.00    0.986   1.000   0.996   0.985   1.024   1.031   1.031   1.040   1.055   1.033   1.062   1.115   1.095   1.055   1.067   1.092   1.082   1.078   1.063   1.041   0.983   0.981   1.041   1.045   1.044   1.072   1.069   1.078   1.072   1.084   1.065   1.101   1.063
   162.75    1.018   0.979   1.018   0.970   0.985   0.995   1.040   1.063   1.054   1.044   1.046   1.090   1.067   1.036   1.068   1.069   1.073   1.051   1.091   1.068   1.034   1.023   1.034   1.045   1.014   1.041   1.059   1.074   1.070   1.078   1.066   1.064   1.050
   156.50    1.005   0.993   1.025   0.991   0.973   0.982   1.025   1.017   1.036   1.048   1.080   1.102   1.066   1.043   1.073   1.069   1.058   1.095   1.066   1.063   1.030   1.041   1.035   1.061   1.077   1.081   1.107   1.112   1.108   1.106   1.096   1.080   1.080
   150.25    1.033   1.043   1.004   0.992   0.988   0.974   1.030   1.018   1.038   1.082   1.060   1.085   1.086   1.111   1.098   1.092   1.092   1.094   1.083   1.061   1.078   1.066   1.030   1.045   1.083   1.114   1.116   1.125   1.105   1.067   1.095   1.068   1.056
   144.00    1.012   1.038   1.017   1.017   0.988   0.995   1.053   1.029   1.038   1.055   1.089   1.094   1.053   1.080   1.096   1.094   1.116   1.132   1.109   1.084   1.067   1.061   1.030   1.095   1.106   1.139   1.138   1.118   1.091   1.083   1.069   1.084   1.101
   137.75    1.019   1.030   1.019   1.003   1.035   1.052   1.068   1.028   1.058   1.106   1.116   1.080   1.066   1.075   1.053   1.090   1.117   1.142   1.095   1.109   1.062   1.100   1.122   1.132   1.133   1.141   1.098   1.115   1.110   1.142   1.080   1.089   1.098
   131.50    1.014   1.023   1.000   1.016   1.027   1.073   1.049   1.068   1.069   1.081   1.098   1.086   1.082   1.088   1.090   1.086   1.103   1.111   1.083   1.110   1.098   1.093   1.114   1.081   1.103   1.100   1.097   1.109   1.136   1.136   1.142   1.102   1.078
   125.25    1.022   1.036   1.003   1.022   1.062   1.034   1.079   1.082   1.089   1.089   1.097   1.127   1.139   1.105   1.088   1.093   1.104   1.068   1.102   1.091   1.052   1.053   1.035   1.047   1.079   1.113   1.107   1.133   1.137   1.120   1.130   1.099   1.089
   119.00    0.998   1.032   1.048   1.039   1.053   1.068   1.075   1.083   1.072   1.066   1.083   1.114   1.137   1.131   1.145   1.136   1.122   1.104   1.126   1.085   1.085   1.093   1.055   1.034   1.077   1.080   1.103   1.126   1.137   1.160   1.141   1.114   1.083
   112.75    1.039   1.040   1.055   1.072   1.080   1.081   1.102   1.094   1.106   1.081   1.072   1.109   1.176   1.148   1.165   1.153   1.144   1.154   1.113   1.069   1.103   1.104   1.067   1.077   1.058   1.046   1.114   1.081   1.136   1.141   1.139   1.117   1.078
   106.50    1.075   1.058   1.059   1.057   1.064   1.103   1.151   1.120   1.084   1.109   1.105   1.106   1.168   1.187   1.178   1.172   1.152   1.165   1.134   1.088   1.124   1.111   1.087   1.116   1.105   1.092   1.108   1.136   1.145   1.170   1.152   1.145   1.097
   100.25    1.071   1.081   1.060   1.059   1.056   1.101   1.081   1.105   1.115   1.130   1.114   1.103   1.163   1.190   1.185   1.177   1.160   1.151   1.122   1.133   1.141   1.119   1.131   1.145   1.175   1.117   1.098   1.133   1.142   1.158   1.174   1.188   1.110
    94.00    1.149   1.103   1.061   1.046   1.048   1.078   1.085   1.085   1.083   1.080   1.123   1.124   1.142   1.121   1.138   1.151   1.142   1.157   1.169   1.152   1.153   1.132   1.133   1.163   1.166   1.117   1.123   1.095   1.118   1.118   1.175   1.153   1.160
    87.75    1.125   1.115   1.071   1.052   1.013   1.040   1.086   1.101   1.080   1.067   1.098   1.080   1.140   1.141   1.138   1.186   1.186   1.189   1.142   1.133   1.132   1.137   1.173   1.178   1.144   1.124   1.105   1.111   1.114   1.131   1.119   1.166   1.162
    81.50    1.112   1.119   1.084   1.041   1.024   1.071   1.075   1.100   1.072   1.076   1.063   1.097   1.111   1.112   1.148   1.186   1.174   1.151   1.166   1.169   1.141   1.126   1.157   1.162   1.191   1.156   1.111   1.129   1.125   1.140   1.141   1.141   1.154
    75.25    1.092   1.104   1.110   1.072   1.085   1.079   1.082   1.088   1.037   1.076   1.078   1.095   1.081   1.106   1.121   1.152   1.174   1.174   1.168   1.166   1.154   1.143   1.149   1.169   1.175   1.172   1.141   1.118   1.110   1.147   1.124   1.126   1.130
    69.00    1.084   1.104   1.118   1.121   1.125   1.125   1.091   1.072   1.072   1.059   1.055   1.070   1.094   1.065   1.095   1.133   1.123   1.155   1.165   1.147   1.133   1.106   1.133   1.142   1.140   1.145   1.149   1.116   1.146   1.156   1.096   1.118   1.101
    62.75    1.127   1.108   1.151   1.146   1.128   1.114   1.097   1.071   1.068   1.074   1.070   1.046   1.078   1.096   1.100   1.142   1.156   1.144   1.144   1.186   1.129   1.122   1.141   1.151   1.156   1.123   1.124   1.123   1.106   1.141   1.145   1.100   1.135
    56.50    1.127   1.132   1.158   1.183   1.125   1.110   1.087   1.095   1.112   1.114   1.094   1.055   1.098   1.103   1.129   1.150   1.163   1.168   1.183   1.181   1.149   1.148   1.131   1.163   1.163   1.104   1.102   1.118   1.116   1.120   1.152   1.137   1.154
    50.25    1.111   1.131   1.133   1.139   1.116   1.106   1.141   1.135   1.154   1.117   1.094   1.094   1.107   1.145   1.124   1.142   1.135   1.179   1.179   1.165   1.138   1.140   1.143   1.135   1.154   1.164   1.136   1.134   1.114   1.120   1.127   1.162   1.136
    44.00    1.104   1.106   1.136   1.156   1.117   1.134   1.168   1.153   1.161   1.131   1.129   1.111   1.129   1.128   1.126   1.115   1.149   1.171   1.182   1.140   1.155   1.173   1.144   1.153   1.157   1.166   1.118   1.125   1.107   1.103   1.123   1.142   1.166
    37.75    1.109   1.105   1.093   1.100   1.118   1.130   1.116   1.135   1.159   1.122   1.140   1.159   1.142   1.149   1.111   1.158   1.171   1.164   1.180   1.162   1.121   1.110   1.155   1.179   1.137   1.124   1.111   1.132   1.119   1.108   1.096   1.130   1.144
    31.50    1.101   1.111   1.084   1.088   1.127   1.144   1.133   1.147   1.134   1.129   1.155   1.123   1.098   1.119   1.110   1.135   1.160   1.178   1.176   1.187   1.136   1.123   1.134   1.156   1.140   1.126   1.118   1.090   1.105   1.105   1.123   1.115   1.136
    25.25    1.113   1.095   1.099   1.134   1.133   1.104   1.106   1.104   1.124   1.128   1.136   1.134   1.089   1.138   1.130   1.145   1.155   1.141   1.141   1.120   1.155   1.135   1.132   1.170   1.131   1.105   1.131   1.141   1.132   1.135   1.129   1.165   1.137
    19.00    1.101   1.089   1.120   1.151   1.171   1.165   1.102   1.107   1.105   1.095   1.088   1.092   1.086   1.100   1.114   1.155   1.145   1.119   1.143   1.158   1.157   1.175   1.153   1.169   1.122   1.155   1.158   1.193   1.167   1.129   1.157   1.156   1.144

   Height   Standard deviation at grid points for the v component:
   219.00    0.898   0.898   0.898   0.898   0.898   0.898   0.898   0.898   0.898   0.898   0.898   0.898   0.898   0.898   0.898   0.898   0.898   0.898   0.898   0.898   0.898   0.898   0.898   0.898   0.898   0.898   0.898   0.898   0.898   0.898   0.898   0.898   0.898
   212.75    0.898   0.898   0.898   0.898   0.898   0.898   0.898   0.898   0.898   0.898   0.898   0.898   0.898   0.898   0.898   0.898   0.898   0.898   0.898   0.898   0.898   0.898   0.898   0.898   0.898   0.898   0.898   0.898   0.898   0.898   0.898   0.898   0.898
   206.50    0.898   0.898   0.898   0.898   0.898   0.898   0.898   0.898   0.898   0.898   0.898   0.898   0.898   0.898   0.898   0.898   0.898   0.898   0.898   0.898   0.898   0.898   0.898   0.898   0.898   0.898   0.898   0.898   0.898   0.898   0.898   0.898   0.898
   200.25    0.898   0.898   0.898   0.898   0.898   0.898   0.898   0.898   0.898   0.898   0.898   0.898   0.898   0.898   0.898   0.898   0.898   0.898   0.898   0.898   0.898   0.898   0.898   0.898   0.898   0.898   0.898   0.898   0.898   0.898   0.898   0.898   0.898
   194.00    0.898   0.898   0.898   0.898   0.898   0.898   0.898   0.898   0.898   0.898   0.898   0.898   0.898   0.898   0.898   0.898   0.898   0.898   0.898   0.898   0.898   0.898   0.898   0.898   0.898   0.898   0.898   0.898   0.898   0.898   0.898   0.898   0.898
   187.75    0.898   0.898   0.898   0.898   0.898   0.898   0.898   0.898   0.898   0.898   0.898   0.898   0.898   0.898   0.898   0.898   0.898   0.898   0.898   0.898   0.898   0.898   0.898   0.898   0.898   0.898   0.898   0.898   0.898   0.898   0.898   0.898   0.898
   181.50    0.898   0.898   0.898   0.898   0.898   0.898   0.898   0.898   0.898   0.898   0.898   0.898   0.898   0.898   0.898   0.898   0.898   0.898   0.898   0.898   0.898   0.898   0.898   0.898   0.898   0.898   0.898   0.898   0.898   0.898   0.898   0.898   0.898
   175.25    0.898   0.898   0.898   0.898   0.898   0.898   0.898   0.898   0.898   0.898   0.898   0.898   0.898   0.898   0.898   0.898   0.898   0.898   0.898   0.898   0.898   0.898   0.898   0.898   0.898   0.898   0.898   0.898   0.898   0.898   0.898   0.898   0.898
   169.00    0.898   0.898   0.898   0.898   0.898   0.898   0.898   0.898   0.898   0.898   0.898   0.898   0.898   0.898   0.898   0.898   0.898   0.898   0.898   0.898   0.898   0.898   0.898   0.898   0.898   0.898   0.898   0.898   0.898   0.898   0.898   0.898   0.898
   162.75    0.898   0.898   0.898   0.898   0.898   0.898   0.898   0.898   0.898   0.898   0.898   0.898   0.898   0.898   0.898   0.898   0.898   0.898   0.898   0.898   0.898   0.898   0.898   0.898   0.898   0.898   0.898   0.898   0.898   0.898   0.898   0.898   0.898
   156.50    0.898   0.898   0.898   0.898   0.898   0.898   0.898   0.898   0.898   0.898   0.898   0.898   0.898   0.898   0.898   0.898   0.898   0.898   0.898   0.898   0.898   0.898   0.898   0.898   0.898   0.898   0.898   0.898   0.898   0.898   0.898   0.898   0.898
   150.25    0.898   0.898   0.898   0.898   0.898   0.898   0.898   0.898   0.898   0.898   0.898   0.898   0.898   0.898   0.898   0.898   0.898   0.898   0.898   0.898   0.898   0.898   0.898   0.898   0.898   0.898   0.898   0.898   0.898   0.898   0.898   0.898   0.898
   144.00    0.898   0.898   0.898   0.898   0.898   0.898   0.898   0.898   0.898   0.898   0.898   0.898   0.898   0.898   0.898   0.898   0.898   0.898   0.898   0.898   0.898   0.898   0.898   0.898   0.898   0.898   0.898   0.898   0.898   0.898   0.898   0.898   0.898
   137.75    0.898   0.898   0.898   0.898   0.898   0.898   0.898   0.898   0.898   0.898   0.898   0.898   0.898   0.898   0.898   0.898   0.898   0.898   0.898   0.898   0.898   0.898   0.898   0.898   0.898   0.898   0.898   0.898   0.898   0.898   0.898   0.898   0.898
   131.50    0.898   0.898   0.898   0.898   0.898   0.898   0.898   0.898   0.898   0.898   0.898   0.898   0.898   0.898   0.898   0.898   0.898   0.898   0.898   0.898   0.898   0.898   0.898   0.898   0.898   0.898   0.898   0.898   0.898   0.898   0.898   0.898   0.898
   125.25    0.898   0.898   0.898   0.898   0.898   0.898   0.898   0.898   0.898   0.898   0.898   0.898   0.898   0.898   0.898   0.898   0.898   0.898   0.898   0.898   0.898   0.898   0.898   0.898   0.898   0.898   0.898   0.898   0.898   0.898   0.898   0.898   0.898
   119.00    0.898   0.898   0.898   0.898   0.898   0.898   0.898   0.898   0.898   0.898   0.898   0.898   0.898   0.898   0.898   0.898   0.898   0.898   0.898   0.898   0.898   0.898   0.898   0.898   0.898   0.898   0.898   0.898   0.898   0.898   0.898   0.898   0.898
   112.75    0.898   0.898   0.898   0.898   0.898   0.898   0.898   0.898   0.898   0.898   0.898   0.898   0.898   0.898   0.898   0.898   0.898   0.898   0.898   0.898   0.898   0.898   0.898   0.898   0.898   0.898   0.898   0.898   0.898   0.898   0.898   0.898   0.898
   106.50    0.898   0.898   0.898   0.898   0.898   0.898   0.898   0.898   0.898   0.898   0.898   0.898   0.898   0.898   0.898   0.898   0.898   0.898   0.898   0.898   0.898   0.898   0.898   0.898   0.898   0.898   0.898   0.898   0.898   0.898   0.898   0.898   0.898
   100.25    0.898   0.898   0.898   0.898   0.898   0.898   0.898   0.898   0.898   0.898   0.898   0.898   0.898   0.898   0.898   0.898   0.898   0.898   0.898   0.898   0.898   0.898   0.898   0.898   0.898   0.898   0.898   0.898   0.898   0.898   0.898   0.898   0.898
    94.00    0.898   0.898   0.898   0.898   0.898   0.898   0.898   0.898   0.898   0.898   0.898   0.898   0.898   0.898   0.898   0.898   0.898   0.898   0.898   0.898   0.898   0.898   0.898   0.898   0.898   0.898   0.898   0.898   0.898   0.898   0.898   0.898   0.898
    87.75    0.898   0.898   0.898   0.898   0.898   0.898   0.898   0.898   0.898   0.898   0.898   0.898   0.898   0.898   0.898   0.898   0.898   0.898   0.898   0.898   0.898   0.898   0.898   0.898   0.898   0.898   0.898   0.898   0.898   0.898   0.898   0.898   0.898
    81.50    0.898   0.898   0.898   0.898   0.898   0.898   0.898   0.898   0.898   0.898   0.898   0.898   0.898   0.898   0.898   0.898   0.898   0.898   0.898   0.898   0.898   0.898   0.898   0.898   0.898   0.898   0.898   0.898   0.898   0.898   0.898   0.898   0.898
    75.25    0.898   0.898   0.898   0.898   0.898   0.898   0.898   0.898   0.898   0.898   0.898   0.898   0.898   0.898   0.898   0.898   0.898   0.898   0.898   0.898   0.898   0.898   0.898   0.898   0.898   0.898   0.898   0.898   0.898   0.898   0.898   0.898   0.898
    69.00    0.898   0.898   0.898   0.898   0.898   0.898   0.898   0.898   0.898   0.898   0.898   0.898   0.898   0.898   0.898   0.898   0.898   0.898   0.898   0.898   0.898   0.898   0.898   0.898   0.898   0.898   0.898   0.898   0.898   0.898   0.898   0.898   0.898
    62.75    0.898   0.898   0.898   0.898   0.898   0.898   0.898   0.898   0.898   0.898   0.898   0.898   0.898   0.898   0.898   0.898   0.898   0.898   0.898   0.898   0.898   0.898   0.898   0.898   0.898   0.898   0.898   0.898   0.898   0.898   0.898   0.898   0.898
    56.50    0.898   0.898   0.898   0.898   0.898   0.898   0.898   0.898   0.898   0.898   0.898   0.898   0.898   0.898   0.898   0.898   0.898   0.898   0.898   0.898   0.898   0.898   0.898   0.898   0.898   0.898   0.898   0.898   0.898   0.898   0.898   0.898   0.898
    50.25    0.898   0.898   0.898   0.898   0.898   0.898   0.898   0.898   0.898   0.898   0.898   0.898   0.898   0.898   0.898   0.898   0.898   0.898   0.898   0.898   0.898   0.898   0.898   0.898   0.898   0.898   0.898   0.898   0.898   0.898   0.898   0.898   0.898
    44.00    0.898   0.898   0.898   0.898   0.898   0.898   0.898   0.898   0.898   0.898   0.898   0.898   0.898   0.898   0.898   0.898   0.898   0.898   0.898   0.898   0.898   0.898   0.898   0.898   0.898   0.898   0.898   0.898   0.898   0.898   0.898   0.898   0.898
    37.75    0.898   0.898   0.898   0.898   0.898   0.898   0.898   0.898   0.898   0.898   0.898   0.898   0.898   0.898   0.898   0.898   0.898   0.898   0.898   0.898   0.898   0.898   0.898   0.898   0.898   0.898   0.898   0.898   0.898   0.898   0.898   0.898   0.898
    31.50    0.898   0.898   0.898   0.898   0.898   0.898   0.898   0.898   0.898   0.898   0.898   0.898   0.898   0.898   0.898   0.898   0.898   0.898   0.898   0.898   0.898   0.898   0.898   0.898   0.898   0.898   0.898   0.898   0.898   0.898   0.898   0.898   0.898
    25.25    0.898   0.898   0.898   0.898   0.898   0.898   0.898   0.898   0.898   0.898   0.898   0.898   0.898   0.898   0.898   0.898   0.898   0.898   0.898   0.898   0.898   0.898   0.898   0.898   0.898   0.898   0.898   0.898   0.898   0.898   0.898   0.898   0.898
    19.00    0.898   0.898   0.898   0.898   0.898   0.898   0.898   0.898   0.898   0.898   0.898   0.898   0.898   0.898   0.898   0.898   0.898   0.898   0.898   0.898   0.898   0.898   0.898   0.898   0.898   0.898   0.898   0.898   0.898   0.898   0.898   0.898   0.898

   Height   Standard deviation at grid points for the w component:
   219.00    0.561   0.561   0.561   0.561   0.561   0.561   0.561   0.561   0.561   0.561   0.561   0.561   0.561   0.561   0.561   0.561   0.561   0.561   0.561   0.561   0.561   0.561   0.561   0.561   0.561   0.561   0.561   0.561   0.561   0.561   0.561   0.561   0.561
   212.75    0.561   0.561   0.561   0.561   0.561   0.561   0.561   0.561   0.561   0.561   0.561   0.561   0.561   0.561   0.561   0.561   0.561   0.561   0.561   0.561   0.561   0.561   0.561   0.561   0.561   0.561   0.561   0.561   0.561   0.561   0.561   0.561   0.561
   206.50    0.561   0.561   0.561   0.561   0.561   0.561   0.561   0.561   0.561   0.561   0.561   0.561   0.561   0.561   0.561   0.561   0.561   0.561   0.561   0.561   0.561   0.561   0.561   0.561   0.561   0.561   0.561   0.561   0.561   0.561   0.561   0.561   0.561
   200.25    0.561   0.561   0.561   0.561   0.561   0.561   0.561   0.561   0.561   0.561   0.561   0.561   0.561   0.561   0.561   0.561   0.561   0.561   0.561   0.561   0.561   0.561   0.561   0.561   0.561   0.561   0.561   0.561   0.561   0.561   0.561   0.561   0.561
   194.00    0.561   0.561   0.561   0.561   0.561   0.561   0.561   0.561   0.561   0.561   0.561   0.561   0.561   0.561   0.561   0.561   0.561   0.561   0.561   0.561   0.561   0.561   0.561   0.561   0.561   0.561   0.561   0.561   0.561   0.561   0.561   0.561   0.561
   187.75    0.561   0.561   0.561   0.561   0.561   0.561   0.561   0.561   0.561   0.561   0.561   0.561   0.561   0.561   0.561   0.561   0.561   0.561   0.561   0.561   0.561   0.561   0.561   0.561   0.561   0.561   0.561   0.561   0.561   0.561   0.561   0.561   0.561
   181.50    0.561   0.561   0.561   0.561   0.561   0.561   0.561   0.561   0.561   0.561   0.561   0.561   0.561   0.561   0.561   0.561   0.561   0.561   0.561   0.561   0.561   0.561   0.561   0.561   0.561   0.561   0.561   0.561   0.561   0.561   0.561   0.561   0.561
   175.25    0.561   0.561   0.561   0.561   0.561   0.561   0.561   0.561   0.561   0.561   0.561   0.561   0.561   0.561   0.561   0.561   0.561   0.561   0.561   0.561   0.561   0.561   0.561   0.561   0.561   0.561   0.561   0.561   0.561   0.561   0.561   0.561   0.561
   169.00    0.561   0.561   0.561   0.561   0.561   0.561   0.561   0.561   0.561   0.561   0.561   0.561   0.561   0.561   0.561   0.561   0.561   0.561   0.561   0.561   0.561   0.561   0.561   0.561   0.561   0.561   0.561   0.561   0.561   0.561   0.561   0.561   0.561
   162.75    0.561   0.561   0.561   0.561   0.561   0.561   0.561   0.561   0.561   0.561   0.561   0.561   0.561   0.561   0.561   0.561   0.561   0.561   0.561   0.561   0.561   0.561   0.561   0.561   0.561   0.561   0.561   0.561   0.561   0.561   0.561   0.561   0.561
   156.50    0.561   0.561   0.561   0.561   0.561   0.561   0.561   0.561   0.561   0.561   0.561   0.561   0.561   0.561   0.561   0.561   0.561   0.561   0.561   0.561   0.561   0.561   0.561   0.561   0.561   0.561   0.561   0.561   0.561   0.561   0.561   0.561   0.561
   150.25    0.561   0.561   0.561   0.561   0.561   0.561   0.561   0.561   0.561   0.561   0.561   0.561   0.561   0.561   0.561   0.561   0.561   0.561   0.561   0.561   0.561   0.561   0.561   0.561   0.561   0.561   0.561   0.561   0.561   0.561   0.561   0.561   0.561
   144.00    0.561   0.561   0.561   0.561   0.561   0.561   0.561   0.561   0.561   0.561   0.561   0.561   0.561   0.561   0.561   0.561   0.561   0.561   0.561   0.561   0.561   0.561   0.561   0.561   0.561   0.561   0.561   0.561   0.561   0.561   0.561   0.561   0.561
   137.75    0.561   0.561   0.561   0.561   0.561   0.561   0.561   0.561   0.561   0.561   0.561   0.561   0.561   0.561   0.561   0.561   0.561   0.561   0.561   0.561   0.561   0.561   0.561   0.561   0.561   0.561   0.561   0.561   0.561   0.561   0.561   0.561   0.561
   131.50    0.561   0.561   0.561   0.561   0.561   0.561   0.561   0.561   0.561   0.561   0.561   0.561   0.561   0.561   0.561   0.561   0.561   0.561   0.561   0.561   0.561   0.561   0.561   0.561   0.561   0.561   0.561   0.561   0.561   0.561   0.561   0.561   0.561
   125.25    0.561   0.561   0.561   0.561   0.561   0.561   0.561   0.561   0.561   0.561   0.561   0.561   0.561   0.561   0.561   0.561   0.561   0.561   0.561   0.561   0.561   0.561   0.561   0.561   0.561   0.561   0.561   0.561   0.561   0.561   0.561   0.561   0.561
   119.00    0.561   0.561   0.561   0.561   0.561   0.561   0.561   0.561   0.561   0.561   0.561   0.561   0.561   0.561   0.561   0.561   0.561   0.561   0.561   0.561   0.561   0.561   0.561   0.561   0.561   0.561   0.561   0.561   0.561   0.561   0.561   0.561   0.561
   112.75    0.561   0.561   0.561   0.561   0.561   0.561   0.561   0.561   0.561   0.561   0.561   0.561   0.561   0.561   0.561   0.561   0.561   0.561   0.561   0.561   0.561   0.561   0.561   0.561   0.561   0.561   0.561   0.561   0.561   0.561   0.561   0.561   0.561
   106.50    0.561   0.561   0.561   0.561   0.561   0.561   0.561   0.561   0.561   0.561   0.561   0.561   0.561   0.561   0.561   0.561   0.561   0.561   0.561   0.561   0.561   0.561   0.561   0.561   0.561   0.561   0.561   0.561   0.561   0.561   0.561   0.561   0.561
   100.25    0.561   0.561   0.561   0.561   0.561   0.561   0.561   0.561   0.561   0.561   0.561   0.561   0.561   0.561   0.561   0.561   0.561   0.561   0.561   0.561   0.561   0.561   0.561   0.561   0.561   0.561   0.561   0.561   0.561   0.561   0.561   0.561   0.561
    94.00    0.561   0.561   0.561   0.561   0.561   0.561   0.561   0.561   0.561   0.561   0.561   0.561   0.561   0.561   0.561   0.561   0.561   0.561   0.561   0.561   0.561   0.561   0.561   0.561   0.561   0.561   0.561   0.561   0.561   0.561   0.561   0.561   0.561
    87.75    0.561   0.561   0.561   0.561   0.561   0.561   0.561   0.561   0.561   0.561   0.561   0.561   0.561   0.561   0.561   0.561   0.561   0.561   0.561   0.561   0.561   0.561   0.561   0.561   0.561   0.561   0.561   0.561   0.561   0.561   0.561   0.561   0.561
    81.50    0.561   0.561   0.561   0.561   0.561   0.561   0.561   0.561   0.561   0.561   0.561   0.561   0.561   0.561   0.561   0.561   0.561   0.561   0.561   0.561   0.561   0.561   0.561   0.561   0.561   0.561   0.561   0.561   0.561   0.561   0.561   0.561   0.561
    75.25    0.561   0.561   0.561   0.561   0.561   0.561   0.561   0.561   0.561   0.561   0.561   0.561   0.561   0.561   0.561   0.561   0.561   0.561   0.561   0.561   0.561   0.561   0.561   0.561   0.561   0.561   0.561   0.561   0.561   0.561   0.561   0.561   0.561
    69.00    0.561   0.561   0.561   0.561   0.561   0.561   0.561   0.561   0.561   0.561   0.561   0.561   0.561   0.561   0.561   0.561   0.561   0.561   0.561   0.561   0.561   0.561   0.561   0.561   0.561   0.561   0.561   0.561   0.561   0.561   0.561   0.561   0.561
    62.75    0.561   0.561   0.561   0.561   0.561   0.561   0.561   0.561   0.561   0.561   0.561   0.561   0.561   0.561   0.561   0.561   0.561   0.561   0.561   0.561   0.561   0.561   0.561   0.561   0.561   0.561   0.561   0.561   0.561   0.561   0.561   0.561   0.561
    56.50    0.561   0.561   0.561   0.561   0.561   0.561   0.561   0.561   0.561   0.561   0.561   0.561   0.561   0.561   0.561   0.561   0.561   0.561   0.561   0.561   0.561   0.561   0.561   0.561   0.561   0.561   0.561   0.561   0.561   0.561   0.561   0.561   0.561
    50.25    0.561   0.561   0.561   0.561   0.561   0.561   0.561   0.561   0.561   0.561   0.561   0.561   0.561   0.561   0.561   0.561   0.561   0.561   0.561   0.561   0.561   0.561   0.561   0.561   0.561   0.561   0.561   0.561   0.561   0.561   0.561   0.561   0.561
    44.00    0.561   0.561   0.561   0.561   0.561   0.561   0.561   0.561   0.561   0.561   0.561   0.561   0.561   0.561   0.561   0.561   0.561   0.561   0.561   0.561   0.561   0.561   0.561   0.561   0.561   0.561   0.561   0.561   0.561   0.561   0.561   0.561   0.561
    37.75    0.561   0.561   0.561   0.561   0.561   0.561   0.561   0.561   0.561   0.561   0.561   0.561   0.561   0.561   0.561   0.561   0.561   0.561   0.561   0.561   0.561   0.561   0.561   0.561   0.561   0.561   0.561   0.561   0.561   0.561   0.561   0.561   0.561
    31.50    0.561   0.561   0.561   0.561   0.561   0.561   0.561   0.561   0.561   0.561   0.561   0.561   0.561   0.561   0.561   0.561   0.561   0.561   0.561   0.561   0.561   0.561   0.561   0.561   0.561   0.561   0.561   0.561   0.561   0.561   0.561   0.561   0.561
    25.25    0.561   0.561   0.561   0.561   0.561   0.561   0.561   0.561   0.561   0.561   0.561   0.561   0.561   0.561   0.561   0.561   0.561   0.561   0.561   0.561   0.561   0.561   0.561   0.561   0.561   0.561   0.561   0.561   0.561   0.561   0.561   0.561   0.561
    19.00    0.561   0.561   0.561   0.561   0.561   0.561   0.561   0.561   0.561   0.561   0.561   0.561   0.561   0.561   0.561   0.561   0.561   0.561   0.561   0.561   0.561   0.561   0.561   0.561   0.561   0.561   0.561   0.561   0.561   0.561   0.561   0.561   0.561

   Mean standard deviation across all grid points:
      u component:    1.094 m/s
      v component:    0.898 m/s
      w component:    0.561 m/s


U-component (X) statistics from the hub grid point:

   Mean =   5.0000 m/s
   TI   =  22.4400 %

Nyquist frequency of turbulent wind field =        10.000 Hz


Processing complete.  3390.6 CPU seconds used.
