
This summary file was generated by TurbSim (v1.06.00, 21-Sep-2012) on 20-Sep-2017 at 17:58:05.


Runtime Options:

    123456  Random seed #1
    789012  Random seed #2
         F  Output binary HH turbulence parameters?
         F  Output formatted turbulence parameters?
         F  Output AeroDyn HH files?
         T  Output AeroDyn FF files?
         F  Output BLADED FF files?
         F  Output tower data?
         F  Output formatted FF files?
         F  Output coherent turbulence time step file?
         T  Clockwise rotation when looking downwind?
 1 -   HUB  IEC turbulence models scaled to exact specified standard deviation


Turbine/Model Specifications:

        33  Vertical grid-point matrix dimension
        33  Horizontal grid-point matrix dimension
     0.050  Time step [seconds]
  5400.000  Analysis time [seconds]
  5400.000  Usable output time [seconds]
   119.000  Hub height [m]
   200.000  Grid height [m]
   200.000  Grid width [m]
     0.000  Vertical flow angle [degrees]
     0.000  Horizontal flow angle [degrees]


Meteorological Boundary Conditions:

    IECKAI  IEC Kaimal spectral model
         3  IEC standard: IEC 61400-3 Ed. 1: 2006
         C  IEC turbulence characteristic
       NTM  IEC Normal Turbulence Model
       N/A  IEC Extreme Turbulence Model (ETM) "c" parameter [m/s]
       IEC  Wind profile type
   119.000  Reference height [m]
     7.100  Reference wind speed [m/s]
       N/A  Jet height [m]
     0.140  Power law exponent
     0.030  Surface roughness length [m]


You have requested that the following file(s) be generated:

   7.1ms.bts (AeroDyn/TurbSim full-field wind file)


Turbulence Simulation Scaling Parameter Summary:

   Turbulence model used                            =  IEC Kaimal
   Turbulence characteristic                        =  C
   IEC turbulence type                              =  Normal Turbulence Model
   IEC standard                                     =  IEC 61400-3 Ed. 1: 2006
   Mean wind speed at hub height                    =    7.100 m/s
   Expected value of turbulence intensity at 15 m/s =   12.000%
   Characteristic value of standard deviation       =    1.311 m/s
   Turbulence scale                                 =   42.000 m
   u-component integral scale                       =  340.200 m
   Coherency scale                                  =  340.200 m
   Characteristic value of hub turbulence intensity =   18.465%
   Gradient Richardson number                       =    0.000

   Wind profile type                                =  Power law on rotor disk, logarithmic elsewhere
   Power law exponent                               =    0.140
   Mean shear across rotor disk                     =    0.011 (m/s)/m
   Assumed rotor diameter                           =  200.000 m
   Surface roughness length                         =    0.030 m

   Number of time steps in the FFT                  =   108680
   Number of time steps output                      =   108564


Mean Flow Angles:

   Vertical   =   0.0 degrees
   Horizontal =   0.0 degrees

Mean Wind Speed Profile:

   Height    Wind Speed   Horizontal Angle  U-comp (X)   V-comp (Y)   W-comp (Z)
     (m)        (m/s)         (degrees)       (m/s)        (m/s)        (m/s)   
   ------    ----------   ----------------  ----------   ----------   ----------
    219.0        7.73            0.00          7.73         0.00         0.00
    212.8        7.70            0.00          7.70         0.00         0.00
    206.5        7.67            0.00          7.67         0.00         0.00
    200.2        7.64            0.00          7.64         0.00         0.00
    194.0        7.60            0.00          7.60         0.00         0.00
    187.8        7.57            0.00          7.57         0.00         0.00
    181.5        7.53            0.00          7.53         0.00         0.00
    175.2        7.50            0.00          7.50         0.00         0.00
    169.0        7.46            0.00          7.46         0.00         0.00
    162.8        7.42            0.00          7.42         0.00         0.00
    156.5        7.38            0.00          7.38         0.00         0.00
    150.2        7.34            0.00          7.34         0.00         0.00
    144.0        7.29            0.00          7.29         0.00         0.00
    137.8        7.25            0.00          7.25         0.00         0.00
    131.5        7.20            0.00          7.20         0.00         0.00
    125.2        7.15            0.00          7.15         0.00         0.00
    119.0        7.10            0.00          7.10         0.00         0.00
    112.8        7.05            0.00          7.05         0.00         0.00
    106.5        6.99            0.00          6.99         0.00         0.00
    100.2        6.93            0.00          6.93         0.00         0.00
     94.0        6.87            0.00          6.87         0.00         0.00
     87.8        6.80            0.00          6.80         0.00         0.00
     81.5        6.73            0.00          6.73         0.00         0.00
     75.2        6.66            0.00          6.66         0.00         0.00
     69.0        6.58            0.00          6.58         0.00         0.00
     62.8        6.49            0.00          6.49         0.00         0.00
     56.5        6.40            0.00          6.40         0.00         0.00
     50.2        6.29            0.00          6.29         0.00         0.00
     44.0        6.18            0.00          6.18         0.00         0.00
     37.8        6.05            0.00          6.05         0.00         0.00
     31.5        5.89            0.00          5.89         0.00         0.00
     25.2        5.71            0.00          5.71         0.00         0.00
     19.0        5.49            0.00          5.49         0.00         0.00


Harvested Random Seeds after Generation of the Random Numbers:

   1364431965 Harvested seed # 1
   1636955808 Harvested seed # 2


Scaling statistics from the hub grid point:

  Component  Target Sigma (m/s)  Simulated Sigma (m/s)  Scaling Factor
  ---------  ------------------  ---------------------  --------------
     u'             1.311                1.246                1.052
     v'             1.049                1.040                1.008
     w'             0.655                0.646                1.014


Hub-Height Simulated Turbulence Statistical Summary:

   Type of Wind        Min (m/s)   Mean (m/s)    Max (m/s)  Sigma (m/s)       TI (%)
   ----------------    ---------   ----------    ---------  -----------       ------
   Longitudinal (u)         2.09         7.10        12.42        1.311       18.465
   Lateral (v)             -4.20         0.00         4.60        1.049       14.772
   Vertical (w)            -2.60         0.00         2.66        0.655        9.232
   U component              2.09         7.10        12.42        1.311       18.465
   V component             -4.20         0.00         4.60        1.049       14.772
   W component             -2.60         0.00         2.66        0.655        9.232
   Horizontal (U&V)         2.12         7.18        12.43        1.302       18.142
   Total                    2.22         7.21        12.44        1.297       17.987

                       Min Reynolds     Mean Reynolds    Max Reynolds    Correlation
   Product             Stress (m/s)^2   Stress (m/s)^2   Stress (m/s)^2  Coefficient
   ----------------    --------------   --------------   --------------  -----------
   u'w'                     -7.111             0.006             7.571         0.006
   u'v'                     -9.124             0.077            10.619         0.056
   v'w'                     -5.361             0.008             5.850         0.012


   Friction Velocity (Ustar)  =      0.074 m/s
   Maximum Instantaneous TKE  =     14.411 (m/s)^2
   Maximum Instantaneous CTKE =      6.236 (m/s)^2


Grid Point Variance Summary:

   Y-coord -100.00  -93.75  -87.50  -81.25  -75.00  -68.75  -62.50  -56.25  -50.00  -43.75  -37.50  -31.25  -25.00  -18.75  -12.50   -6.25    0.00    6.25   12.50   18.75   25.00   31.25   37.50   43.75   50.00   56.25   62.50   68.75   75.00   81.25   87.50   93.75  100.00

   Height   Standard deviation at grid points for the u component:
   219.00    1.296   1.308   1.281   1.242   1.246   1.272   1.260   1.247   1.281   1.274   1.258   1.264   1.268   1.301   1.382   1.386   1.422   1.411   1.398   1.371   1.337   1.343   1.309   1.330   1.327   1.282   1.308   1.376   1.354   1.365   1.361   1.414   1.407
   212.75    1.273   1.315   1.285   1.267   1.250   1.287   1.263   1.262   1.288   1.297   1.266   1.298   1.304   1.328   1.412   1.384   1.406   1.417   1.410   1.393   1.376   1.360   1.366   1.337   1.341   1.323   1.300   1.334   1.338   1.350   1.338   1.351   1.394
   206.50    1.285   1.283   1.284   1.277   1.276   1.302   1.292   1.267   1.278   1.269   1.283   1.326   1.311   1.342   1.390   1.406   1.418   1.413   1.428   1.402   1.401   1.336   1.336   1.327   1.347   1.335   1.310   1.317   1.308   1.345   1.305   1.310   1.323
   200.25    1.309   1.285   1.292   1.311   1.282   1.294   1.320   1.321   1.305   1.290   1.295   1.321   1.302   1.359   1.397   1.415   1.412   1.418   1.412   1.418   1.407   1.362   1.363   1.362   1.339   1.337   1.348   1.329   1.329   1.321   1.319   1.324   1.300
   194.00    1.298   1.286   1.296   1.314   1.319   1.299   1.299   1.321   1.287   1.302   1.319   1.313   1.337   1.375   1.447   1.414   1.433   1.392   1.445   1.380   1.387   1.376   1.387   1.367   1.331   1.363   1.330   1.321   1.326   1.336   1.347   1.303   1.316
   187.75    1.344   1.323   1.305   1.315   1.301   1.329   1.310   1.320   1.328   1.346   1.325   1.337   1.348   1.426   1.411   1.397   1.400   1.410   1.388   1.353   1.384   1.358   1.353   1.351   1.383   1.401   1.342   1.322   1.348   1.345   1.333   1.344   1.347
   181.50    1.342   1.321   1.322   1.314   1.298   1.278   1.318   1.352   1.306   1.278   1.360   1.313   1.351   1.377   1.417   1.420   1.423   1.401   1.367   1.352   1.350   1.403   1.375   1.371   1.364   1.366   1.296   1.320   1.329   1.359   1.353   1.347   1.345
   175.25    1.316   1.332   1.321   1.341   1.293   1.311   1.316   1.332   1.308   1.285   1.342   1.344   1.354   1.346   1.413   1.402   1.422   1.426   1.389   1.356   1.345   1.386   1.417   1.401   1.377   1.386   1.352   1.355   1.363   1.348   1.351   1.354   1.382
   169.00    1.386   1.343   1.331   1.342   1.318   1.334   1.355   1.341   1.314   1.306   1.323   1.338   1.353   1.351   1.363   1.362   1.404   1.401   1.368   1.360   1.378   1.360   1.391   1.392   1.392   1.388   1.376   1.389   1.347   1.353   1.368   1.376   1.355
   162.75    1.386   1.362   1.375   1.331   1.329   1.331   1.359   1.315   1.329   1.317   1.319   1.326   1.363   1.335   1.319   1.324   1.396   1.382   1.331   1.348   1.342   1.350   1.367   1.393   1.421   1.409   1.381   1.362   1.367   1.376   1.354   1.385   1.418
   156.50    1.389   1.365   1.360   1.331   1.328   1.319   1.312   1.325   1.278   1.333   1.334   1.358   1.352   1.359   1.330   1.361   1.333   1.357   1.360   1.359   1.392   1.378   1.391   1.375   1.397   1.417   1.408   1.379   1.375   1.397   1.388   1.386   1.424
   150.25    1.363   1.372   1.333   1.347   1.337   1.322   1.329   1.344   1.320   1.367   1.319   1.310   1.315   1.324   1.341   1.349   1.342   1.357   1.375   1.375   1.359   1.378   1.398   1.381   1.365   1.369   1.366   1.379   1.356   1.353   1.406   1.400   1.433
   144.00    1.370   1.369   1.357   1.334   1.350   1.353   1.330   1.361   1.380   1.403   1.341   1.322   1.295   1.351   1.352   1.320   1.339   1.345   1.319   1.372   1.337   1.400   1.407   1.393   1.360   1.365   1.364   1.332   1.351   1.380   1.364   1.405   1.439
   137.75    1.335   1.361   1.353   1.377   1.377   1.347   1.313   1.357   1.379   1.426   1.341   1.347   1.332   1.344   1.346   1.322   1.331   1.348   1.337   1.342   1.348   1.370   1.408   1.408   1.372   1.379   1.356   1.345   1.359   1.378   1.417   1.420   1.416
   131.50    1.325   1.284   1.300   1.357   1.352   1.346   1.394   1.352   1.368   1.388   1.374   1.392   1.372   1.360   1.370   1.355   1.332   1.317   1.326   1.306   1.310   1.332   1.398   1.373   1.372   1.386   1.364   1.352   1.394   1.396   1.392   1.408   1.398
   125.25    1.300   1.311   1.321   1.329   1.363   1.360   1.380   1.343   1.394   1.394   1.366   1.385   1.381   1.381   1.373   1.367   1.345   1.345   1.306   1.303   1.338   1.345   1.353   1.347   1.332   1.355   1.373   1.350   1.389   1.418   1.417   1.413   1.414
   119.00    1.313   1.312   1.350   1.362   1.337   1.348   1.341   1.357   1.362   1.376   1.372   1.368   1.392   1.378   1.383   1.337   1.311   1.326   1.299   1.269   1.309   1.346   1.358   1.324   1.303   1.346   1.292   1.324   1.371   1.383   1.403   1.443   1.422
   112.75    1.325   1.334   1.332   1.295   1.347   1.334   1.345   1.367   1.406   1.351   1.369   1.392   1.374   1.373   1.360   1.352   1.308   1.337   1.301   1.297   1.275   1.293   1.324   1.322   1.308   1.303   1.337   1.343   1.357   1.383   1.384   1.420   1.431
   106.50    1.286   1.301   1.326   1.298   1.309   1.338   1.341   1.347   1.372   1.350   1.331   1.354   1.338   1.343   1.321   1.330   1.318   1.295   1.315   1.286   1.295   1.308   1.309   1.291   1.291   1.302   1.340   1.335   1.353   1.374   1.384   1.412   1.440
   100.25    1.287   1.299   1.317   1.330   1.319   1.280   1.303   1.326   1.334   1.364   1.325   1.342   1.388   1.340   1.350   1.297   1.328   1.328   1.310   1.312   1.275   1.290   1.305   1.324   1.316   1.285   1.387   1.382   1.352   1.386   1.419   1.459   1.424
    94.00    1.260   1.287   1.328   1.321   1.312   1.261   1.298   1.295   1.335   1.381   1.356   1.368   1.366   1.331   1.361   1.342   1.309   1.304   1.358   1.308   1.307   1.313   1.285   1.304   1.308   1.318   1.356   1.360   1.386   1.390   1.426   1.436   1.438
    87.75    1.273   1.286   1.314   1.329   1.301   1.296   1.317   1.311   1.376   1.371   1.346   1.353   1.376   1.347   1.340   1.308   1.309   1.287   1.321   1.296   1.299   1.303   1.289   1.306   1.315   1.339   1.380   1.398   1.382   1.414   1.415   1.461   1.463
    81.50    1.278   1.289   1.295   1.351   1.346   1.323   1.346   1.318   1.346   1.353   1.343   1.375   1.380   1.370   1.320   1.329   1.347   1.317   1.331   1.284   1.296   1.274   1.269   1.284   1.292   1.340   1.379   1.389   1.395   1.447   1.451   1.448   1.428
    75.25    1.314   1.301   1.355   1.309   1.329   1.322   1.367   1.324   1.326   1.328   1.348   1.350   1.330   1.314   1.332   1.337   1.324   1.297   1.317   1.311   1.271   1.268   1.263   1.284   1.289   1.341   1.346   1.366   1.397   1.432   1.420   1.430   1.455
    69.00    1.334   1.372   1.357   1.328   1.358   1.353   1.334   1.306   1.334   1.337   1.330   1.322   1.341   1.335   1.321   1.352   1.297   1.287   1.320   1.285   1.258   1.245   1.245   1.291   1.303   1.378   1.373   1.343   1.384   1.396   1.436   1.450   1.439
    62.75    1.364   1.351   1.321   1.351   1.343   1.350   1.340   1.347   1.324   1.311   1.296   1.312   1.341   1.340   1.283   1.344   1.310   1.260   1.276   1.260   1.269   1.239   1.253   1.311   1.352   1.380   1.349   1.371   1.346   1.376   1.414   1.419   1.432
    56.50    1.364   1.360   1.357   1.334   1.361   1.368   1.350   1.360   1.361   1.333   1.339   1.345   1.333   1.330   1.345   1.356   1.318   1.313   1.309   1.287   1.278   1.283   1.270   1.305   1.331   1.351   1.351   1.323   1.364   1.354   1.382   1.390   1.445
    50.25    1.326   1.344   1.370   1.339   1.387   1.372   1.381   1.334   1.336   1.332   1.365   1.338   1.384   1.341   1.384   1.364   1.307   1.339   1.358   1.342   1.280   1.294   1.291   1.315   1.364   1.378   1.355   1.345   1.371   1.378   1.362   1.397   1.393
    44.00    1.322   1.332   1.314   1.367   1.383   1.398   1.406   1.363   1.355   1.386   1.345   1.369   1.404   1.423   1.403   1.338   1.332   1.340   1.358   1.333   1.284   1.252   1.260   1.304   1.354   1.379   1.389   1.350   1.379   1.377   1.413   1.410   1.426
    37.75    1.333   1.339   1.350   1.341   1.357   1.407   1.399   1.416   1.379   1.348   1.367   1.369   1.407   1.410   1.388   1.352   1.368   1.388   1.399   1.315   1.303   1.281   1.275   1.291   1.326   1.353   1.368   1.393   1.395   1.391   1.378   1.436   1.424
    31.50    1.337   1.374   1.361   1.411   1.375   1.399   1.374   1.360   1.378   1.374   1.385   1.410   1.404   1.409   1.404   1.379   1.392   1.395   1.360   1.324   1.278   1.301   1.291   1.300   1.289   1.330   1.325   1.344   1.395   1.385   1.390   1.404   1.430
    25.25    1.353   1.368   1.360   1.393   1.438   1.431   1.433   1.396   1.358   1.402   1.429   1.386   1.394   1.403   1.425   1.391   1.379   1.392   1.358   1.349   1.308   1.291   1.301   1.297   1.295   1.325   1.327   1.327   1.374   1.371   1.401   1.360   1.427
    19.00    1.364   1.365   1.353   1.372   1.412   1.445   1.449   1.426   1.420   1.409   1.420   1.440   1.429   1.424   1.380   1.359   1.385   1.354   1.382   1.344   1.295   1.306   1.320   1.275   1.270   1.312   1.353   1.354   1.322   1.343   1.364   1.390   1.365

   Height   Standard deviation at grid points for the v component:
   219.00    1.049   1.049   1.049   1.049   1.049   1.049   1.049   1.049   1.049   1.049   1.049   1.049   1.049   1.049   1.049   1.049   1.049   1.049   1.049   1.049   1.049   1.049   1.049   1.049   1.049   1.049   1.049   1.049   1.049   1.049   1.049   1.049   1.049
   212.75    1.049   1.049   1.049   1.049   1.049   1.049   1.049   1.049   1.049   1.049   1.049   1.049   1.049   1.049   1.049   1.049   1.049   1.049   1.049   1.049   1.049   1.049   1.049   1.049   1.049   1.049   1.049   1.049   1.049   1.049   1.049   1.049   1.049
   206.50    1.049   1.049   1.049   1.049   1.049   1.049   1.049   1.049   1.049   1.049   1.049   1.049   1.049   1.049   1.049   1.049   1.049   1.049   1.049   1.049   1.049   1.049   1.049   1.049   1.049   1.049   1.049   1.049   1.049   1.049   1.049   1.049   1.049
   200.25    1.049   1.049   1.049   1.049   1.049   1.049   1.049   1.049   1.049   1.049   1.049   1.049   1.049   1.049   1.049   1.049   1.049   1.049   1.049   1.049   1.049   1.049   1.049   1.049   1.049   1.049   1.049   1.049   1.049   1.049   1.049   1.049   1.049
   194.00    1.049   1.049   1.049   1.049   1.049   1.049   1.049   1.049   1.049   1.049   1.049   1.049   1.049   1.049   1.049   1.049   1.049   1.049   1.049   1.049   1.049   1.049   1.049   1.049   1.049   1.049   1.049   1.049   1.049   1.049   1.049   1.049   1.049
   187.75    1.049   1.049   1.049   1.049   1.049   1.049   1.049   1.049   1.049   1.049   1.049   1.049   1.049   1.049   1.049   1.049   1.049   1.049   1.049   1.049   1.049   1.049   1.049   1.049   1.049   1.049   1.049   1.049   1.049   1.049   1.049   1.049   1.049
   181.50    1.049   1.049   1.049   1.049   1.049   1.049   1.049   1.049   1.049   1.049   1.049   1.049   1.049   1.049   1.049   1.049   1.049   1.049   1.049   1.049   1.049   1.049   1.049   1.049   1.049   1.049   1.049   1.049   1.049   1.049   1.049   1.049   1.049
   175.25    1.049   1.049   1.049   1.049   1.049   1.049   1.049   1.049   1.049   1.049   1.049   1.049   1.049   1.049   1.049   1.049   1.049   1.049   1.049   1.049   1.049   1.049   1.049   1.049   1.049   1.049   1.049   1.049   1.049   1.049   1.049   1.049   1.049
   169.00    1.049   1.049   1.049   1.049   1.049   1.049   1.049   1.049   1.049   1.049   1.049   1.049   1.049   1.049   1.049   1.049   1.049   1.049   1.049   1.049   1.049   1.049   1.049   1.049   1.049   1.049   1.049   1.049   1.049   1.049   1.049   1.049   1.049
   162.75    1.049   1.049   1.049   1.049   1.049   1.049   1.049   1.049   1.049   1.049   1.049   1.049   1.049   1.049   1.049   1.049   1.049   1.049   1.049   1.049   1.049   1.049   1.049   1.049   1.049   1.049   1.049   1.049   1.049   1.049   1.049   1.049   1.049
   156.50    1.049   1.049   1.049   1.049   1.049   1.049   1.049   1.049   1.049   1.049   1.049   1.049   1.049   1.049   1.049   1.049   1.049   1.049   1.049   1.049   1.049   1.049   1.049   1.049   1.049   1.049   1.049   1.049   1.049   1.049   1.049   1.049   1.049
   150.25    1.049   1.049   1.049   1.049   1.049   1.049   1.049   1.049   1.049   1.049   1.049   1.049   1.049   1.049   1.049   1.049   1.049   1.049   1.049   1.049   1.049   1.049   1.049   1.049   1.049   1.049   1.049   1.049   1.049   1.049   1.049   1.049   1.049
   144.00    1.049   1.049   1.049   1.049   1.049   1.049   1.049   1.049   1.049   1.049   1.049   1.049   1.049   1.049   1.049   1.049   1.049   1.049   1.049   1.049   1.049   1.049   1.049   1.049   1.049   1.049   1.049   1.049   1.049   1.049   1.049   1.049   1.049
   137.75    1.049   1.049   1.049   1.049   1.049   1.049   1.049   1.049   1.049   1.049   1.049   1.049   1.049   1.049   1.049   1.049   1.049   1.049   1.049   1.049   1.049   1.049   1.049   1.049   1.049   1.049   1.049   1.049   1.049   1.049   1.049   1.049   1.049
   131.50    1.049   1.049   1.049   1.049   1.049   1.049   1.049   1.049   1.049   1.049   1.049   1.049   1.049   1.049   1.049   1.049   1.049   1.049   1.049   1.049   1.049   1.049   1.049   1.049   1.049   1.049   1.049   1.049   1.049   1.049   1.049   1.049   1.049
   125.25    1.049   1.049   1.049   1.049   1.049   1.049   1.049   1.049   1.049   1.049   1.049   1.049   1.049   1.049   1.049   1.049   1.049   1.049   1.049   1.049   1.049   1.049   1.049   1.049   1.049   1.049   1.049   1.049   1.049   1.049   1.049   1.049   1.049
   119.00    1.049   1.049   1.049   1.049   1.049   1.049   1.049   1.049   1.049   1.049   1.049   1.049   1.049   1.049   1.049   1.049   1.049   1.049   1.049   1.049   1.049   1.049   1.049   1.049   1.049   1.049   1.049   1.049   1.049   1.049   1.049   1.049   1.049
   112.75    1.049   1.049   1.049   1.049   1.049   1.049   1.049   1.049   1.049   1.049   1.049   1.049   1.049   1.049   1.049   1.049   1.049   1.049   1.049   1.049   1.049   1.049   1.049   1.049   1.049   1.049   1.049   1.049   1.049   1.049   1.049   1.049   1.049
   106.50    1.049   1.049   1.049   1.049   1.049   1.049   1.049   1.049   1.049   1.049   1.049   1.049   1.049   1.049   1.049   1.049   1.049   1.049   1.049   1.049   1.049   1.049   1.049   1.049   1.049   1.049   1.049   1.049   1.049   1.049   1.049   1.049   1.049
   100.25    1.049   1.049   1.049   1.049   1.049   1.049   1.049   1.049   1.049   1.049   1.049   1.049   1.049   1.049   1.049   1.049   1.049   1.049   1.049   1.049   1.049   1.049   1.049   1.049   1.049   1.049   1.049   1.049   1.049   1.049   1.049   1.049   1.049
    94.00    1.049   1.049   1.049   1.049   1.049   1.049   1.049   1.049   1.049   1.049   1.049   1.049   1.049   1.049   1.049   1.049   1.049   1.049   1.049   1.049   1.049   1.049   1.049   1.049   1.049   1.049   1.049   1.049   1.049   1.049   1.049   1.049   1.049
    87.75    1.049   1.049   1.049   1.049   1.049   1.049   1.049   1.049   1.049   1.049   1.049   1.049   1.049   1.049   1.049   1.049   1.049   1.049   1.049   1.049   1.049   1.049   1.049   1.049   1.049   1.049   1.049   1.049   1.049   1.049   1.049   1.049   1.049
    81.50    1.049   1.049   1.049   1.049   1.049   1.049   1.049   1.049   1.049   1.049   1.049   1.049   1.049   1.049   1.049   1.049   1.049   1.049   1.049   1.049   1.049   1.049   1.049   1.049   1.049   1.049   1.049   1.049   1.049   1.049   1.049   1.049   1.049
    75.25    1.049   1.049   1.049   1.049   1.049   1.049   1.049   1.049   1.049   1.049   1.049   1.049   1.049   1.049   1.049   1.049   1.049   1.049   1.049   1.049   1.049   1.049   1.049   1.049   1.049   1.049   1.049   1.049   1.049   1.049   1.049   1.049   1.049
    69.00    1.049   1.049   1.049   1.049   1.049   1.049   1.049   1.049   1.049   1.049   1.049   1.049   1.049   1.049   1.049   1.049   1.049   1.049   1.049   1.049   1.049   1.049   1.049   1.049   1.049   1.049   1.049   1.049   1.049   1.049   1.049   1.049   1.049
    62.75    1.049   1.049   1.049   1.049   1.049   1.049   1.049   1.049   1.049   1.049   1.049   1.049   1.049   1.049   1.049   1.049   1.049   1.049   1.049   1.049   1.049   1.049   1.049   1.049   1.049   1.049   1.049   1.049   1.049   1.049   1.049   1.049   1.049
    56.50    1.049   1.049   1.049   1.049   1.049   1.049   1.049   1.049   1.049   1.049   1.049   1.049   1.049   1.049   1.049   1.049   1.049   1.049   1.049   1.049   1.049   1.049   1.049   1.049   1.049   1.049   1.049   1.049   1.049   1.049   1.049   1.049   1.049
    50.25    1.049   1.049   1.049   1.049   1.049   1.049   1.049   1.049   1.049   1.049   1.049   1.049   1.049   1.049   1.049   1.049   1.049   1.049   1.049   1.049   1.049   1.049   1.049   1.049   1.049   1.049   1.049   1.049   1.049   1.049   1.049   1.049   1.049
    44.00    1.049   1.049   1.049   1.049   1.049   1.049   1.049   1.049   1.049   1.049   1.049   1.049   1.049   1.049   1.049   1.049   1.049   1.049   1.049   1.049   1.049   1.049   1.049   1.049   1.049   1.049   1.049   1.049   1.049   1.049   1.049   1.049   1.049
    37.75    1.049   1.049   1.049   1.049   1.049   1.049   1.049   1.049   1.049   1.049   1.049   1.049   1.049   1.049   1.049   1.049   1.049   1.049   1.049   1.049   1.049   1.049   1.049   1.049   1.049   1.049   1.049   1.049   1.049   1.049   1.049   1.049   1.049
    31.50    1.049   1.049   1.049   1.049   1.049   1.049   1.049   1.049   1.049   1.049   1.049   1.049   1.049   1.049   1.049   1.049   1.049   1.049   1.049   1.049   1.049   1.049   1.049   1.049   1.049   1.049   1.049   1.049   1.049   1.049   1.049   1.049   1.049
    25.25    1.049   1.049   1.049   1.049   1.049   1.049   1.049   1.049   1.049   1.049   1.049   1.049   1.049   1.049   1.049   1.049   1.049   1.049   1.049   1.049   1.049   1.049   1.049   1.049   1.049   1.049   1.049   1.049   1.049   1.049   1.049   1.049   1.049
    19.00    1.049   1.049   1.049   1.049   1.049   1.049   1.049   1.049   1.049   1.049   1.049   1.049   1.049   1.049   1.049   1.049   1.049   1.049   1.049   1.049   1.049   1.049   1.049   1.049   1.049   1.049   1.049   1.049   1.049   1.049   1.049   1.049   1.049

   Height   Standard deviation at grid points for the w component:
   219.00    0.655   0.655   0.655   0.655   0.655   0.655   0.655   0.655   0.655   0.655   0.655   0.655   0.655   0.656   0.655   0.655   0.655   0.655   0.655   0.655   0.655   0.655   0.655   0.655   0.655   0.655   0.655   0.656   0.655   0.656   0.655   0.655   0.655
   212.75    0.655   0.655   0.655   0.655   0.655   0.655   0.655   0.655   0.656   0.655   0.655   0.655   0.655   0.655   0.655   0.655   0.655   0.655   0.656   0.655   0.655   0.655   0.655   0.655   0.655   0.655   0.655   0.655   0.655   0.655   0.655   0.655   0.655
   206.50    0.655   0.655   0.655   0.655   0.655   0.655   0.655   0.655   0.655   0.655   0.655   0.655   0.656   0.655   0.655   0.655   0.655   0.655   0.655   0.655   0.655   0.655   0.655   0.655   0.655   0.655   0.655   0.655   0.655   0.655   0.656   0.655   0.655
   200.25    0.655   0.655   0.655   0.655   0.655   0.655   0.655   0.655   0.655   0.655   0.655   0.655   0.656   0.655   0.655   0.655   0.655   0.655   0.655   0.655   0.655   0.655   0.655   0.655   0.655   0.655   0.655   0.655   0.655   0.655   0.655   0.655   0.655
   194.00    0.655   0.655   0.655   0.655   0.655   0.655   0.655   0.655   0.655   0.655   0.655   0.655   0.655   0.655   0.655   0.655   0.655   0.655   0.655   0.655   0.655   0.655   0.655   0.655   0.655   0.655   0.655   0.655   0.655   0.655   0.655   0.655   0.655
   187.75    0.655   0.655   0.655   0.655   0.655   0.655   0.655   0.655   0.655   0.655   0.655   0.655   0.655   0.655   0.655   0.655   0.655   0.656   0.655   0.655   0.656   0.655   0.655   0.655   0.655   0.655   0.655   0.655   0.655   0.655   0.655   0.655   0.655
   181.50    0.655   0.655   0.655   0.655   0.655   0.655   0.655   0.655   0.655   0.655   0.656   0.655   0.655   0.655   0.656   0.655   0.655   0.655   0.655   0.655   0.655   0.655   0.655   0.655   0.655   0.655   0.655   0.655   0.655   0.655   0.655   0.655   0.655
   175.25    0.655   0.655   0.655   0.655   0.655   0.655   0.655   0.655   0.655   0.656   0.655   0.656   0.655   0.655   0.655   0.655   0.655   0.655   0.655   0.655   0.655   0.655   0.655   0.655   0.655   0.655   0.655   0.655   0.655   0.655   0.655   0.655   0.655
   169.00    0.656   0.655   0.655   0.655   0.655   0.655   0.655   0.655   0.655   0.656   0.655   0.656   0.655   0.655   0.655   0.656   0.655   0.656   0.655   0.655   0.656   0.655   0.655   0.655   0.655   0.655   0.655   0.655   0.655   0.655   0.655   0.655   0.655
   162.75    0.655   0.655   0.655   0.655   0.655   0.655   0.655   0.656   0.655   0.656   0.655   0.655   0.655   0.655   0.655   0.655   0.655   0.655   0.655   0.655   0.655   0.655   0.655   0.655   0.655   0.655   0.655   0.655   0.655   0.655   0.655   0.655   0.655
   156.50    0.656   0.655   0.655   0.655   0.655   0.655   0.655   0.655   0.655   0.655   0.655   0.656   0.655   0.655   0.655   0.656   0.655   0.655   0.655   0.655   0.656   0.655   0.655   0.655   0.655   0.655   0.655   0.655   0.655   0.655   0.655   0.655   0.655
   150.25    0.655   0.655   0.655   0.656   0.655   0.655   0.655   0.656   0.656   0.655   0.655   0.655   0.656   0.655   0.655   0.655   0.655   0.655   0.655   0.655   0.655   0.655   0.655   0.655   0.656   0.655   0.655   0.655   0.655   0.656   0.655   0.655   0.655
   144.00    0.655   0.655   0.655   0.655   0.655   0.655   0.655   0.655   0.655   0.655   0.656   0.655   0.655   0.655   0.655   0.655   0.655   0.655   0.655   0.655   0.655   0.655   0.655   0.655   0.655   0.656   0.655   0.655   0.655   0.655   0.655   0.655   0.655
   137.75    0.655   0.655   0.655   0.655   0.655   0.655   0.655   0.655   0.655   0.655   0.655   0.655   0.655   0.655   0.655   0.655   0.655   0.655   0.655   0.655   0.655   0.656   0.655   0.655   0.655   0.655   0.655   0.655   0.655   0.655   0.655   0.655   0.655
   131.50    0.655   0.655   0.655   0.655   0.656   0.655   0.655   0.656   0.655   0.655   0.656   0.655   0.655   0.655   0.655   0.655   0.655   0.655   0.655   0.655   0.655   0.655   0.655   0.655   0.655   0.655   0.656   0.655   0.655   0.655   0.655   0.655   0.655
   125.25    0.655   0.655   0.656   0.655   0.655   0.656   0.655   0.655   0.655   0.655   0.655   0.655   0.655   0.655   0.655   0.655   0.655   0.656   0.655   0.655   0.655   0.655   0.655   0.655   0.655   0.655   0.655   0.655   0.655   0.655   0.655   0.655   0.655
   119.00    0.655   0.655   0.655   0.655   0.655   0.655   0.655   0.655   0.655   0.655   0.655   0.655   0.655   0.655   0.655   0.655   0.655   0.655   0.655   0.655   0.655   0.655   0.655   0.656   0.655   0.655   0.655   0.655   0.655   0.655   0.656   0.655   0.655
   112.75    0.655   0.655   0.655   0.655   0.655   0.655   0.655   0.655   0.655   0.655   0.655   0.655   0.655   0.655   0.655   0.655   0.655   0.655   0.656   0.655   0.655   0.655   0.655   0.655   0.655   0.655   0.655   0.655   0.656   0.656   0.655   0.655   0.655
   106.50    0.655   0.656   0.655   0.655   0.655   0.656   0.655   0.655   0.655   0.655   0.655   0.655   0.655   0.655   0.655   0.655   0.655   0.656   0.655   0.655   0.655   0.655   0.655   0.656   0.655   0.655   0.655   0.655   0.655   0.655   0.655   0.655   0.655
   100.25    0.655   0.655   0.655   0.655   0.655   0.655   0.655   0.655   0.655   0.655   0.655   0.655   0.655   0.655   0.655   0.655   0.655   0.655   0.655   0.655   0.655   0.655   0.655   0.655   0.655   0.655   0.655   0.655   0.655   0.655   0.655   0.656   0.655
    94.00    0.655   0.655   0.655   0.655   0.655   0.655   0.655   0.655   0.655   0.655   0.655   0.655   0.655   0.655   0.655   0.655   0.655   0.655   0.655   0.655   0.655   0.655   0.655   0.655   0.656   0.655   0.655   0.655   0.655   0.655   0.655   0.655   0.655
    87.75    0.655   0.655   0.655   0.655   0.655   0.655   0.655   0.655   0.655   0.655   0.655   0.655   0.656   0.655   0.655   0.656   0.655   0.655   0.656   0.655   0.655   0.655   0.655   0.655   0.655   0.655   0.655   0.655   0.655   0.656   0.655   0.655   0.656
    81.50    0.655   0.655   0.655   0.655   0.655   0.655   0.655   0.655   0.655   0.655   0.655   0.655   0.655   0.655   0.655   0.655   0.655   0.655   0.655   0.655   0.655   0.655   0.655   0.655   0.655   0.655   0.655   0.655   0.655   0.655   0.655   0.655   0.655
    75.25    0.655   0.655   0.655   0.655   0.655   0.655   0.655   0.655   0.655   0.655   0.655   0.655   0.655   0.655   0.655   0.655   0.655   0.655   0.655   0.655   0.655   0.655   0.655   0.655   0.655   0.655   0.655   0.655   0.655   0.655   0.655   0.655   0.655
    69.00    0.655   0.655   0.655   0.655   0.655   0.656   0.656   0.656   0.655   0.655   0.655   0.655   0.655   0.655   0.655   0.655   0.655   0.655   0.655   0.655   0.655   0.655   0.655   0.655   0.655   0.655   0.655   0.655   0.655   0.655   0.655   0.655   0.655
    62.75    0.655   0.655   0.655   0.655   0.655   0.655   0.655   0.655   0.655   0.655   0.655   0.655   0.655   0.655   0.655   0.655   0.655   0.655   0.655   0.655   0.655   0.655   0.655   0.655   0.655   0.655   0.655   0.655   0.655   0.655   0.655   0.655   0.656
    56.50    0.655   0.655   0.655   0.655   0.655   0.655   0.655   0.655   0.655   0.655   0.655   0.655   0.655   0.655   0.655   0.656   0.655   0.655   0.655   0.655   0.655   0.655   0.655   0.655   0.655   0.655   0.655   0.655   0.655   0.655   0.656   0.655   0.655
    50.25    0.655   0.655   0.655   0.655   0.655   0.655   0.655   0.655   0.655   0.655   0.655   0.655   0.655   0.655   0.655   0.655   0.655   0.655   0.655   0.655   0.655   0.655   0.655   0.655   0.655   0.655   0.655   0.655   0.655   0.655   0.656   0.655   0.655
    44.00    0.655   0.655   0.655   0.655   0.655   0.655   0.655   0.655   0.655   0.655   0.655   0.655   0.655   0.655   0.655   0.655   0.655   0.655   0.655   0.655   0.655   0.655   0.655   0.655   0.655   0.655   0.655   0.655   0.655   0.655   0.655   0.655   0.655
    37.75    0.655   0.655   0.655   0.655   0.655   0.655   0.655   0.655   0.655   0.655   0.655   0.655   0.655   0.655   0.655   0.655   0.655   0.655   0.655   0.655   0.655   0.655   0.655   0.655   0.655   0.655   0.655   0.655   0.655   0.656   0.655   0.655   0.655
    31.50    0.655   0.655   0.655   0.655   0.655   0.655   0.655   0.655   0.655   0.655   0.655   0.655   0.655   0.655   0.655   0.655   0.655   0.655   0.655   0.655   0.655   0.655   0.655   0.655   0.655   0.655   0.655   0.655   0.655   0.655   0.655   0.655   0.655
    25.25    0.655   0.655   0.655   0.655   0.655   0.655   0.655   0.655   0.655   0.655   0.655   0.655   0.655   0.655   0.655   0.655   0.655   0.655   0.655   0.655   0.655   0.655   0.655   0.655   0.655   0.655   0.655   0.655   0.655   0.656   0.655   0.655   0.655
    19.00    0.656   0.656   0.655   0.656   0.655   0.655   0.655   0.655   0.655   0.655   0.656   0.655   0.655   0.655   0.655   0.655   0.655   0.655   0.655   0.655   0.655   0.655   0.655   0.656   0.655   0.655   0.655   0.656   0.655   0.655   0.655   0.655   0.655

   Mean standard deviation across all grid points:
      u component:    1.349 m/s
      v component:    1.049 m/s
      w component:    0.655 m/s


U-component (X) statistics from the hub grid point:

   Mean =   7.1000 m/s
   TI   =  18.4648 %

Nyquist frequency of turbulent wind field =        10.000 Hz


Processing complete.  2827.7 CPU seconds used.
